REMARK  Name = ../refined-set-2016/4q9o/4q9o_pocket.pdb
REMARK  247 active torsions:
REMARK  status: ('A' for Active; 'I' for Inactive)
REMARK    1  A    between atoms: _1  and  _3
REMARK    2  A    between atoms: _3  and  _4
REMARK    3  A    between atoms: _3  and  _6
REMARK    4  A    between atoms: _6  and  _7
REMARK    5  A    between atoms: _7  and  _8
REMARK    6  A    between atoms: _10  and  _12
REMARK    7  A    between atoms: _12  and  _13
REMARK    8  A    between atoms: _12  and  _15
REMARK    9  A    between atoms: _15  and  _16
REMARK   10  A    between atoms: _21  and  _23
REMARK   11  A    between atoms: _23  and  _24
REMARK   12  A    between atoms: _23  and  _26
REMARK   13  A    between atoms: _26  and  _27
REMARK   14  A    between atoms: _32  and  _34
REMARK   15  A    between atoms: _34  and  _35
REMARK   16  A    between atoms: _34  and  _37
REMARK   17  A    between atoms: _37  and  _38
REMARK   18  A    between atoms: _38  and  _39
REMARK   19  A    between atoms: _39  and  _40
REMARK   20  A    between atoms: _40  and  _41
REMARK   21  A    between atoms: _45  and  _47
REMARK   22  A    between atoms: _47  and  _48
REMARK   23  A    between atoms: _50  and  _52
REMARK   24  A    between atoms: _52  and  _53
REMARK   25  A    between atoms: _52  and  _55
REMARK   26  A    between atoms: _55  and  _56
REMARK   27  A    between atoms: _56  and  _57
REMARK   28  A    between atoms: _59  and  _61
REMARK   29  A    between atoms: _61  and  _62
REMARK   30  A    between atoms: _61  and  _64
REMARK   31  A    between atoms: _64  and  _65
REMARK   32  A    between atoms: _65  and  _66
REMARK   33  A    between atoms: _69  and  _71
REMARK   34  A    between atoms: _71  and  _72
REMARK   35  A    between atoms: _75  and  _77
REMARK   36  A    between atoms: _77  and  _78
REMARK   37  A    between atoms: _77  and  _80
REMARK   38  A    between atoms: _80  and  _81
REMARK   39  A    between atoms: _84  and  _86
REMARK   40  A    between atoms: _86  and  _87
REMARK   41  A    between atoms: _86  and  _89
REMARK   42  A    between atoms: _89  and  _90
REMARK   43  A    between atoms: _90  and  _91
REMARK   44  A    between atoms: _96  and  _98
REMARK   45  A    between atoms: _98  and  _99
REMARK   46  A    between atoms: _98  and  _101
REMARK   47  A    between atoms: _101  and  _102
REMARK   48  A    between atoms: _105  and  _107
REMARK   49  A    between atoms: _107  and  _108
REMARK   50  A    between atoms: _107  and  _110
REMARK   51  A    between atoms: _113  and  _115
REMARK   52  A    between atoms: _115  and  _116
REMARK   53  A    between atoms: _115  and  _118
REMARK   54  A    between atoms: _118  and  _119
REMARK   55  A    between atoms: _122  and  _124
REMARK   56  A    between atoms: _124  and  _125
REMARK   57  A    between atoms: _124  and  _127
REMARK   58  A    between atoms: _127  and  _128
REMARK   59  A    between atoms: _128  and  _129
REMARK   60  A    between atoms: _129  and  _130
REMARK   61  A    between atoms: _130  and  _131
REMARK   62  A    between atoms: _135  and  _137
REMARK   63  A    between atoms: _137  and  _138
REMARK   64  A    between atoms: _137  and  _140
REMARK   65  A    between atoms: _143  and  _145
REMARK   66  A    between atoms: _145  and  _146
REMARK   67  A    between atoms: _145  and  _148
REMARK   68  A    between atoms: _148  and  _149
REMARK   69  A    between atoms: _154  and  _155
REMARK   70  A    between atoms: _157  and  _159
REMARK   71  A    between atoms: _159  and  _160
REMARK   72  A    between atoms: _163  and  _165
REMARK   73  A    between atoms: _165  and  _166
REMARK   74  A    between atoms: _165  and  _168
REMARK   75  A    between atoms: _168  and  _169
REMARK   76  A    between atoms: _175  and  _177
REMARK   77  A    between atoms: _177  and  _178
REMARK   78  A    between atoms: _177  and  _180
REMARK   79  A    between atoms: _180  and  _181
REMARK   80  A    between atoms: _183  and  _185
REMARK   81  A    between atoms: _185  and  _186
REMARK   82  A    between atoms: _185  and  _188
REMARK   83  A    between atoms: _188  and  _189
REMARK   84  A    between atoms: _194  and  _196
REMARK   85  A    between atoms: _196  and  _197
REMARK   86  A    between atoms: _196  and  _199
REMARK   87  A    between atoms: _202  and  _204
REMARK   88  A    between atoms: _204  and  _205
REMARK   89  A    between atoms: _204  and  _207
REMARK   90  A    between atoms: _207  and  _208
REMARK   91  A    between atoms: _208  and  _209
REMARK   92  A    between atoms: _209  and  _210
REMARK   93  A    between atoms: _210  and  _211
REMARK   94  A    between atoms: _215  and  _217
REMARK   95  A    between atoms: _217  and  _218
REMARK   96  A    between atoms: _217  and  _220
REMARK   97  A    between atoms: _220  and  _221
REMARK   98  A    between atoms: _227  and  _229
REMARK   99  A    between atoms: _229  and  _230
REMARK  100  A    between atoms: _229  and  _232
REMARK  101  A    between atoms: _232  and  _233
REMARK  102  A    between atoms: _236  and  _238
REMARK  103  A    between atoms: _238  and  _239
REMARK  104  A    between atoms: _238  and  _241
REMARK  105  A    between atoms: _241  and  _242
REMARK  106  A    between atoms: _242  and  _243
REMARK  107  A    between atoms: _245  and  _247
REMARK  108  A    between atoms: _247  and  _248
REMARK  109  A    between atoms: _247  and  _250
REMARK  110  A    between atoms: _250  and  _251
REMARK  111  A    between atoms: _256  and  _258
REMARK  112  A    between atoms: _258  and  _259
REMARK  113  A    between atoms: _258  and  _261
REMARK  114  A    between atoms: _261  and  _262
REMARK  115  A    between atoms: _266  and  _267
REMARK  116  A    between atoms: _272  and  _274
REMARK  117  A    between atoms: _274  and  _275
REMARK  118  A    between atoms: _274  and  _277
REMARK  119  A    between atoms: _280  and  _282
REMARK  120  A    between atoms: _282  and  _283
REMARK  121  A    between atoms: _282  and  _285
REMARK  122  A    between atoms: _285  and  _286
REMARK  123  A    between atoms: _286  and  _287
REMARK  124  A    between atoms: _290  and  _292
REMARK  125  A    between atoms: _292  and  _293
REMARK  126  A    between atoms: _292  and  _295
REMARK  127  A    between atoms: _295  and  _296
REMARK  128  A    between atoms: _302  and  _304
REMARK  129  A    between atoms: _304  and  _305
REMARK  130  A    between atoms: _304  and  _307
REMARK  131  A    between atoms: _307  and  _308
REMARK  132  A    between atoms: _313  and  _314
REMARK  133  A    between atoms: _316  and  _318
REMARK  134  A    between atoms: _318  and  _319
REMARK  135  A    between atoms: _318  and  _321
REMARK  136  A    between atoms: _321  and  _322
REMARK  137  A    between atoms: _325  and  _327
REMARK  138  A    between atoms: _327  and  _328
REMARK  139  A    between atoms: _327  and  _330
REMARK  140  A    between atoms: _330  and  _331
REMARK  141  A    between atoms: _336  and  _338
REMARK  142  A    between atoms: _338  and  _339
REMARK  143  A    between atoms: _338  and  _341
REMARK  144  A    between atoms: _341  and  _342
REMARK  145  A    between atoms: _347  and  _348
REMARK  146  A    between atoms: _350  and  _352
REMARK  147  A    between atoms: _352  and  _353
REMARK  148  A    between atoms: _352  and  _355
REMARK  149  A    between atoms: _359  and  _360
REMARK  150  A    between atoms: _365  and  _367
REMARK  151  A    between atoms: _367  and  _368
REMARK  152  A    between atoms: _367  and  _370
REMARK  153  A    between atoms: _370  and  _371
REMARK  154  A    between atoms: _371  and  _372
REMARK  155  A    between atoms: _375  and  _377
REMARK  156  A    between atoms: _377  and  _378
REMARK  157  A    between atoms: _377  and  _380
REMARK  158  A    between atoms: _380  and  _381
REMARK  159  A    between atoms: _384  and  _386
REMARK  160  A    between atoms: _386  and  _387
REMARK  161  A    between atoms: _386  and  _389
REMARK  162  A    between atoms: _389  and  _390
REMARK  163  A    between atoms: _395  and  _397
REMARK  164  A    between atoms: _397  and  _398
REMARK  165  A    between atoms: _397  and  _400
REMARK  166  A    between atoms: _403  and  _405
REMARK  167  A    between atoms: _405  and  _406
REMARK  168  A    between atoms: _405  and  _408
REMARK  169  A    between atoms: _408  and  _409
REMARK  170  A    between atoms: _412  and  _414
REMARK  171  A    between atoms: _414  and  _415
REMARK  172  A    between atoms: _414  and  _417
REMARK  173  A    between atoms: _417  and  _418
REMARK  174  A    between atoms: _418  and  _419
REMARK  175  A    between atoms: _424  and  _426
REMARK  176  A    between atoms: _426  and  _427
REMARK  177  A    between atoms: _426  and  _429
REMARK  178  A    between atoms: _429  and  _430
REMARK  179  A    between atoms: _430  and  _431
REMARK  180  A    between atoms: _433  and  _435
REMARK  181  A    between atoms: _435  and  _436
REMARK  182  A    between atoms: _435  and  _438
REMARK  183  A    between atoms: _438  and  _439
REMARK  184  A    between atoms: _443  and  _444
REMARK  185  A    between atoms: _449  and  _451
REMARK  186  A    between atoms: _451  and  _452
REMARK  187  A    between atoms: _451  and  _454
REMARK  188  A    between atoms: _454  and  _455
REMARK  189  A    between atoms: _458  and  _460
REMARK  190  A    between atoms: _460  and  _461
REMARK  191  A    between atoms: _460  and  _463
REMARK  192  A    between atoms: _463  and  _464
REMARK  193  A    between atoms: _470  and  _472
REMARK  194  A    between atoms: _472  and  _473
REMARK  195  A    between atoms: _472  and  _475
REMARK  196  A    between atoms: _475  and  _476
REMARK  197  A    between atoms: _476  and  _477
REMARK  198  A    between atoms: _480  and  _482
REMARK  199  A    between atoms: _482  and  _483
REMARK  200  A    between atoms: _486  and  _488
REMARK  201  A    between atoms: _488  and  _489
REMARK  202  A    between atoms: _488  and  _491
REMARK  203  A    between atoms: _491  and  _492
REMARK  204  A    between atoms: _495  and  _497
REMARK  205  A    between atoms: _497  and  _498
REMARK  206  A    between atoms: _497  and  _500
REMARK  207  A    between atoms: _500  and  _501
REMARK  208  A    between atoms: _504  and  _506
REMARK  209  A    between atoms: _506  and  _507
REMARK  210  A    between atoms: _506  and  _509
REMARK  211  A    between atoms: _509  and  _510
REMARK  212  A    between atoms: _510  and  _511
REMARK  213  A    between atoms: _511  and  _512
REMARK  214  A    between atoms: _512  and  _513
REMARK  215  A    between atoms: _517  and  _519
REMARK  216  A    between atoms: _519  and  _520
REMARK  217  A    between atoms: _523  and  _525
REMARK  218  A    between atoms: _525  and  _526
REMARK  219  A    between atoms: _525  and  _528
REMARK  220  A    between atoms: _528  and  _529
REMARK  221  A    between atoms: _529  and  _530
REMARK  222  A    between atoms: _533  and  _535
REMARK  223  A    between atoms: _535  and  _536
REMARK  224  A    between atoms: _535  and  _538
REMARK  225  A    between atoms: _538  and  _539
REMARK  226  A    between atoms: _542  and  _544
REMARK  227  A    between atoms: _544  and  _545
REMARK  228  A    between atoms: _544  and  _547
REMARK  229  A    between atoms: _547  and  _548
REMARK  230  A    between atoms: _551  and  _553
REMARK  231  A    between atoms: _553  and  _554
REMARK  232  A    between atoms: _553  and  _556
REMARK  233  A    between atoms: _556  and  _557
REMARK  234  A    between atoms: _563  and  _565
REMARK  235  A    between atoms: _565  and  _566
REMARK  236  A    between atoms: _569  and  _571
REMARK  237  A    between atoms: _571  and  _572
REMARK  238  A    between atoms: _571  and  _574
REMARK  239  A    between atoms: _574  and  _575
REMARK  240  A    between atoms: _578  and  _580
REMARK  241  A    between atoms: _580  and  _581
REMARK  242  A    between atoms: _580  and  _583
REMARK  243  A    between atoms: _583  and  _584
REMARK  244  A    between atoms: _589  and  _591
REMARK  245  A    between atoms: _591  and  _592
REMARK  246  A    between atoms: _591  and  _594
REMARK  247  A    between atoms: _594  and  _595
REMARK                            x       y       z     vdW  Elec       q    Type
REMARK                         _______ _______ _______ _____ _____    ______ ____
ROOT
ATOM      1  CA  MET A   1      30.652  -8.583  10.612  0.00  0.00    +0.134 C 
ENDROOT
BRANCH   1   2
ATOM      2  N   MET A   1      29.942  -8.062  11.778  0.00  0.00    -0.239 NA
ATOM      3  H   MET A   1      28.920  -8.245  11.832  0.00  0.00    +0.142 HD
ENDBRANCH   1   2
BRANCH   1   4
ATOM      4  C   MET A   1      30.795  -7.550   9.480  0.00  0.00    +0.224 C 
ATOM      5  O   MET A   1      30.278  -7.742   8.371  0.00  0.00    -0.287 OA
ENDBRANCH   1   4
BRANCH   1   6
ATOM      6  CB  MET A   1      29.971  -9.868  10.115  0.00  0.00    +0.037 C 
BRANCH   6   7
ATOM      7  CG  MET A   1      29.463 -10.752  11.200  0.00  0.00    +0.059 C 
BRANCH   7   8
ATOM      8  SD  MET A   1      28.591 -12.140  10.471  0.00  0.00    -0.139 S 
ATOM      9  CE  MET A   1      29.334 -13.232  11.183  0.00  0.00    +0.069 C 
ENDBRANCH   7   8
ENDBRANCH   6   7
ENDBRANCH   1   6
TORSDOF 5
REMARK  Name = ../refined-set-2016/4q9o/4q9o_pocket.pdb
REMARK  247 active torsions:
REMARK  status: ('A' for Active; 'I' for Inactive)
REMARK    1  A    between atoms: _1  and  _3
REMARK    2  A    between atoms: _3  and  _4
REMARK    3  A    between atoms: _3  and  _6
REMARK    4  A    between atoms: _6  and  _7
REMARK    5  A    between atoms: _7  and  _8
REMARK    6  A    between atoms: _10  and  _12
REMARK    7  A    between atoms: _12  and  _13
REMARK    8  A    between atoms: _12  and  _15
REMARK    9  A    between atoms: _15  and  _16
REMARK   10  A    between atoms: _21  and  _23
REMARK   11  A    between atoms: _23  and  _24
REMARK   12  A    between atoms: _23  and  _26
REMARK   13  A    between atoms: _26  and  _27
REMARK   14  A    between atoms: _32  and  _34
REMARK   15  A    between atoms: _34  and  _35
REMARK   16  A    between atoms: _34  and  _37
REMARK   17  A    between atoms: _37  and  _38
REMARK   18  A    between atoms: _38  and  _39
REMARK   19  A    between atoms: _39  and  _40
REMARK   20  A    between atoms: _40  and  _41
REMARK   21  A    between atoms: _45  and  _47
REMARK   22  A    between atoms: _47  and  _48
REMARK   23  A    between atoms: _50  and  _52
REMARK   24  A    between atoms: _52  and  _53
REMARK   25  A    between atoms: _52  and  _55
REMARK   26  A    between atoms: _55  and  _56
REMARK   27  A    between atoms: _56  and  _57
REMARK   28  A    between atoms: _59  and  _61
REMARK   29  A    between atoms: _61  and  _62
REMARK   30  A    between atoms: _61  and  _64
REMARK   31  A    between atoms: _64  and  _65
REMARK   32  A    between atoms: _65  and  _66
REMARK   33  A    between atoms: _69  and  _71
REMARK   34  A    between atoms: _71  and  _72
REMARK   35  A    between atoms: _75  and  _77
REMARK   36  A    between atoms: _77  and  _78
REMARK   37  A    between atoms: _77  and  _80
REMARK   38  A    between atoms: _80  and  _81
REMARK   39  A    between atoms: _84  and  _86
REMARK   40  A    between atoms: _86  and  _87
REMARK   41  A    between atoms: _86  and  _89
REMARK   42  A    between atoms: _89  and  _90
REMARK   43  A    between atoms: _90  and  _91
REMARK   44  A    between atoms: _96  and  _98
REMARK   45  A    between atoms: _98  and  _99
REMARK   46  A    between atoms: _98  and  _101
REMARK   47  A    between atoms: _101  and  _102
REMARK   48  A    between atoms: _105  and  _107
REMARK   49  A    between atoms: _107  and  _108
REMARK   50  A    between atoms: _107  and  _110
REMARK   51  A    between atoms: _113  and  _115
REMARK   52  A    between atoms: _115  and  _116
REMARK   53  A    between atoms: _115  and  _118
REMARK   54  A    between atoms: _118  and  _119
REMARK   55  A    between atoms: _122  and  _124
REMARK   56  A    between atoms: _124  and  _125
REMARK   57  A    between atoms: _124  and  _127
REMARK   58  A    between atoms: _127  and  _128
REMARK   59  A    between atoms: _128  and  _129
REMARK   60  A    between atoms: _129  and  _130
REMARK   61  A    between atoms: _130  and  _131
REMARK   62  A    between atoms: _135  and  _137
REMARK   63  A    between atoms: _137  and  _138
REMARK   64  A    between atoms: _137  and  _140
REMARK   65  A    between atoms: _143  and  _145
REMARK   66  A    between atoms: _145  and  _146
REMARK   67  A    between atoms: _145  and  _148
REMARK   68  A    between atoms: _148  and  _149
REMARK   69  A    between atoms: _154  and  _155
REMARK   70  A    between atoms: _157  and  _159
REMARK   71  A    between atoms: _159  and  _160
REMARK   72  A    between atoms: _163  and  _165
REMARK   73  A    between atoms: _165  and  _166
REMARK   74  A    between atoms: _165  and  _168
REMARK   75  A    between atoms: _168  and  _169
REMARK   76  A    between atoms: _175  and  _177
REMARK   77  A    between atoms: _177  and  _178
REMARK   78  A    between atoms: _177  and  _180
REMARK   79  A    between atoms: _180  and  _181
REMARK   80  A    between atoms: _183  and  _185
REMARK   81  A    between atoms: _185  and  _186
REMARK   82  A    between atoms: _185  and  _188
REMARK   83  A    between atoms: _188  and  _189
REMARK   84  A    between atoms: _194  and  _196
REMARK   85  A    between atoms: _196  and  _197
REMARK   86  A    between atoms: _196  and  _199
REMARK   87  A    between atoms: _202  and  _204
REMARK   88  A    between atoms: _204  and  _205
REMARK   89  A    between atoms: _204  and  _207
REMARK   90  A    between atoms: _207  and  _208
REMARK   91  A    between atoms: _208  and  _209
REMARK   92  A    between atoms: _209  and  _210
REMARK   93  A    between atoms: _210  and  _211
REMARK   94  A    between atoms: _215  and  _217
REMARK   95  A    between atoms: _217  and  _218
REMARK   96  A    between atoms: _217  and  _220
REMARK   97  A    between atoms: _220  and  _221
REMARK   98  A    between atoms: _227  and  _229
REMARK   99  A    between atoms: _229  and  _230
REMARK  100  A    between atoms: _229  and  _232
REMARK  101  A    between atoms: _232  and  _233
REMARK  102  A    between atoms: _236  and  _238
REMARK  103  A    between atoms: _238  and  _239
REMARK  104  A    between atoms: _238  and  _241
REMARK  105  A    between atoms: _241  and  _242
REMARK  106  A    between atoms: _242  and  _243
REMARK  107  A    between atoms: _245  and  _247
REMARK  108  A    between atoms: _247  and  _248
REMARK  109  A    between atoms: _247  and  _250
REMARK  110  A    between atoms: _250  and  _251
REMARK  111  A    between atoms: _256  and  _258
REMARK  112  A    between atoms: _258  and  _259
REMARK  113  A    between atoms: _258  and  _261
REMARK  114  A    between atoms: _261  and  _262
REMARK  115  A    between atoms: _266  and  _267
REMARK  116  A    between atoms: _272  and  _274
REMARK  117  A    between atoms: _274  and  _275
REMARK  118  A    between atoms: _274  and  _277
REMARK  119  A    between atoms: _280  and  _282
REMARK  120  A    between atoms: _282  and  _283
REMARK  121  A    between atoms: _282  and  _285
REMARK  122  A    between atoms: _285  and  _286
REMARK  123  A    between atoms: _286  and  _287
REMARK  124  A    between atoms: _290  and  _292
REMARK  125  A    between atoms: _292  and  _293
REMARK  126  A    between atoms: _292  and  _295
REMARK  127  A    between atoms: _295  and  _296
REMARK  128  A    between atoms: _302  and  _304
REMARK  129  A    between atoms: _304  and  _305
REMARK  130  A    between atoms: _304  and  _307
REMARK  131  A    between atoms: _307  and  _308
REMARK  132  A    between atoms: _313  and  _314
REMARK  133  A    between atoms: _316  and  _318
REMARK  134  A    between atoms: _318  and  _319
REMARK  135  A    between atoms: _318  and  _321
REMARK  136  A    between atoms: _321  and  _322
REMARK  137  A    between atoms: _325  and  _327
REMARK  138  A    between atoms: _327  and  _328
REMARK  139  A    between atoms: _327  and  _330
REMARK  140  A    between atoms: _330  and  _331
REMARK  141  A    between atoms: _336  and  _338
REMARK  142  A    between atoms: _338  and  _339
REMARK  143  A    between atoms: _338  and  _341
REMARK  144  A    between atoms: _341  and  _342
REMARK  145  A    between atoms: _347  and  _348
REMARK  146  A    between atoms: _350  and  _352
REMARK  147  A    between atoms: _352  and  _353
REMARK  148  A    between atoms: _352  and  _355
REMARK  149  A    between atoms: _359  and  _360
REMARK  150  A    between atoms: _365  and  _367
REMARK  151  A    between atoms: _367  and  _368
REMARK  152  A    between atoms: _367  and  _370
REMARK  153  A    between atoms: _370  and  _371
REMARK  154  A    between atoms: _371  and  _372
REMARK  155  A    between atoms: _375  and  _377
REMARK  156  A    between atoms: _377  and  _378
REMARK  157  A    between atoms: _377  and  _380
REMARK  158  A    between atoms: _380  and  _381
REMARK  159  A    between atoms: _384  and  _386
REMARK  160  A    between atoms: _386  and  _387
REMARK  161  A    between atoms: _386  and  _389
REMARK  162  A    between atoms: _389  and  _390
REMARK  163  A    between atoms: _395  and  _397
REMARK  164  A    between atoms: _397  and  _398
REMARK  165  A    between atoms: _397  and  _400
REMARK  166  A    between atoms: _403  and  _405
REMARK  167  A    between atoms: _405  and  _406
REMARK  168  A    between atoms: _405  and  _408
REMARK  169  A    between atoms: _408  and  _409
REMARK  170  A    between atoms: _412  and  _414
REMARK  171  A    between atoms: _414  and  _415
REMARK  172  A    between atoms: _414  and  _417
REMARK  173  A    between atoms: _417  and  _418
REMARK  174  A    between atoms: _418  and  _419
REMARK  175  A    between atoms: _424  and  _426
REMARK  176  A    between atoms: _426  and  _427
REMARK  177  A    between atoms: _426  and  _429
REMARK  178  A    between atoms: _429  and  _430
REMARK  179  A    between atoms: _430  and  _431
REMARK  180  A    between atoms: _433  and  _435
REMARK  181  A    between atoms: _435  and  _436
REMARK  182  A    between atoms: _435  and  _438
REMARK  183  A    between atoms: _438  and  _439
REMARK  184  A    between atoms: _443  and  _444
REMARK  185  A    between atoms: _449  and  _451
REMARK  186  A    between atoms: _451  and  _452
REMARK  187  A    between atoms: _451  and  _454
REMARK  188  A    between atoms: _454  and  _455
REMARK  189  A    between atoms: _458  and  _460
REMARK  190  A    between atoms: _460  and  _461
REMARK  191  A    between atoms: _460  and  _463
REMARK  192  A    between atoms: _463  and  _464
REMARK  193  A    between atoms: _470  and  _472
REMARK  194  A    between atoms: _472  and  _473
REMARK  195  A    between atoms: _472  and  _475
REMARK  196  A    between atoms: _475  and  _476
REMARK  197  A    between atoms: _476  and  _477
REMARK  198  A    between atoms: _480  and  _482
REMARK  199  A    between atoms: _482  and  _483
REMARK  200  A    between atoms: _486  and  _488
REMARK  201  A    between atoms: _488  and  _489
REMARK  202  A    between atoms: _488  and  _491
REMARK  203  A    between atoms: _491  and  _492
REMARK  204  A    between atoms: _495  and  _497
REMARK  205  A    between atoms: _497  and  _498
REMARK  206  A    between atoms: _497  and  _500
REMARK  207  A    between atoms: _500  and  _501
REMARK  208  A    between atoms: _504  and  _506
REMARK  209  A    between atoms: _506  and  _507
REMARK  210  A    between atoms: _506  and  _509
REMARK  211  A    between atoms: _509  and  _510
REMARK  212  A    between atoms: _510  and  _511
REMARK  213  A    between atoms: _511  and  _512
REMARK  214  A    between atoms: _512  and  _513
REMARK  215  A    between atoms: _517  and  _519
REMARK  216  A    between atoms: _519  and  _520
REMARK  217  A    between atoms: _523  and  _525
REMARK  218  A    between atoms: _525  and  _526
REMARK  219  A    between atoms: _525  and  _528
REMARK  220  A    between atoms: _528  and  _529
REMARK  221  A    between atoms: _529  and  _530
REMARK  222  A    between atoms: _533  and  _535
REMARK  223  A    between atoms: _535  and  _536
REMARK  224  A    between atoms: _535  and  _538
REMARK  225  A    between atoms: _538  and  _539
REMARK  226  A    between atoms: _542  and  _544
REMARK  227  A    between atoms: _544  and  _545
REMARK  228  A    between atoms: _544  and  _547
REMARK  229  A    between atoms: _547  and  _548
REMARK  230  A    between atoms: _551  and  _553
REMARK  231  A    between atoms: _553  and  _554
REMARK  232  A    between atoms: _553  and  _556
REMARK  233  A    between atoms: _556  and  _557
REMARK  234  A    between atoms: _563  and  _565
REMARK  235  A    between atoms: _565  and  _566
REMARK  236  A    between atoms: _569  and  _571
REMARK  237  A    between atoms: _571  and  _572
REMARK  238  A    between atoms: _571  and  _574
REMARK  239  A    between atoms: _574  and  _575
REMARK  240  A    between atoms: _578  and  _580
REMARK  241  A    between atoms: _580  and  _581
REMARK  242  A    between atoms: _580  and  _583
REMARK  243  A    between atoms: _583  and  _584
REMARK  244  A    between atoms: _589  and  _591
REMARK  245  A    between atoms: _591  and  _592
REMARK  246  A    between atoms: _591  and  _594
REMARK  247  A    between atoms: _594  and  _595
REMARK                            x       y       z     vdW  Elec       q    Type
REMARK                         _______ _______ _______ _____ _____    ______ ____
ROOT
ATOM      1  CB  ASN A   1      30.688  -8.287   3.385  0.00  0.00    +0.110 C 
ENDROOT
BRANCH   1   2
ATOM      2  CG  ASN A   1      30.565  -9.305   4.493  0.00  0.00    +0.221 C 
ATOM      3  ND2 ASN A   1      31.661  -9.675   5.116  0.00  0.00    -0.329 N 
ATOM      4 HD21 ASN A   1      31.609 -10.355   5.901  0.00  0.00    +0.145 HD
ATOM      5 HD22 ASN A   1      32.581  -9.288   4.824  0.00  0.00    +0.145 HD
ATOM      6  OD1 ASN A   1      29.467  -9.755   4.827  0.00  0.00    -0.275 OA
ENDBRANCH   1   2
BRANCH   1   7
ATOM      7  CA  ASN A   1      32.070  -7.610   3.241  0.00  0.00    +0.142 C 
BRANCH   7   8
ATOM      8  N   ASN A   1      32.378  -6.694   4.363  0.00  0.00    -0.239 NA
ATOM      9  H   ASN A   1      31.636  -6.474   5.058  0.00  0.00    +0.142 HD
ENDBRANCH   7   8
BRANCH   7  10
ATOM     10  C   ASN A   1      32.194  -6.906   1.892  0.00  0.00    +0.225 C 
ATOM     11  O   ASN A   1      32.903  -7.399   1.019  0.00  0.00    -0.287 OA
ENDBRANCH   7  10
ENDBRANCH   1   7
TORSDOF 4
REMARK  Name = ../refined-set-2016/4q9o/4q9o_pocket.pdb
REMARK  247 active torsions:
REMARK  status: ('A' for Active; 'I' for Inactive)
REMARK    1  A    between atoms: _1  and  _3
REMARK    2  A    between atoms: _3  and  _4
REMARK    3  A    between atoms: _3  and  _6
REMARK    4  A    between atoms: _6  and  _7
REMARK    5  A    between atoms: _7  and  _8
REMARK    6  A    between atoms: _10  and  _12
REMARK    7  A    between atoms: _12  and  _13
REMARK    8  A    between atoms: _12  and  _15
REMARK    9  A    between atoms: _15  and  _16
REMARK   10  A    between atoms: _21  and  _23
REMARK   11  A    between atoms: _23  and  _24
REMARK   12  A    between atoms: _23  and  _26
REMARK   13  A    between atoms: _26  and  _27
REMARK   14  A    between atoms: _32  and  _34
REMARK   15  A    between atoms: _34  and  _35
REMARK   16  A    between atoms: _34  and  _37
REMARK   17  A    between atoms: _37  and  _38
REMARK   18  A    between atoms: _38  and  _39
REMARK   19  A    between atoms: _39  and  _40
REMARK   20  A    between atoms: _40  and  _41
REMARK   21  A    between atoms: _45  and  _47
REMARK   22  A    between atoms: _47  and  _48
REMARK   23  A    between atoms: _50  and  _52
REMARK   24  A    between atoms: _52  and  _53
REMARK   25  A    between atoms: _52  and  _55
REMARK   26  A    between atoms: _55  and  _56
REMARK   27  A    between atoms: _56  and  _57
REMARK   28  A    between atoms: _59  and  _61
REMARK   29  A    between atoms: _61  and  _62
REMARK   30  A    between atoms: _61  and  _64
REMARK   31  A    between atoms: _64  and  _65
REMARK   32  A    between atoms: _65  and  _66
REMARK   33  A    between atoms: _69  and  _71
REMARK   34  A    between atoms: _71  and  _72
REMARK   35  A    between atoms: _75  and  _77
REMARK   36  A    between atoms: _77  and  _78
REMARK   37  A    between atoms: _77  and  _80
REMARK   38  A    between atoms: _80  and  _81
REMARK   39  A    between atoms: _84  and  _86
REMARK   40  A    between atoms: _86  and  _87
REMARK   41  A    between atoms: _86  and  _89
REMARK   42  A    between atoms: _89  and  _90
REMARK   43  A    between atoms: _90  and  _91
REMARK   44  A    between atoms: _96  and  _98
REMARK   45  A    between atoms: _98  and  _99
REMARK   46  A    between atoms: _98  and  _101
REMARK   47  A    between atoms: _101  and  _102
REMARK   48  A    between atoms: _105  and  _107
REMARK   49  A    between atoms: _107  and  _108
REMARK   50  A    between atoms: _107  and  _110
REMARK   51  A    between atoms: _113  and  _115
REMARK   52  A    between atoms: _115  and  _116
REMARK   53  A    between atoms: _115  and  _118
REMARK   54  A    between atoms: _118  and  _119
REMARK   55  A    between atoms: _122  and  _124
REMARK   56  A    between atoms: _124  and  _125
REMARK   57  A    between atoms: _124  and  _127
REMARK   58  A    between atoms: _127  and  _128
REMARK   59  A    between atoms: _128  and  _129
REMARK   60  A    between atoms: _129  and  _130
REMARK   61  A    between atoms: _130  and  _131
REMARK   62  A    between atoms: _135  and  _137
REMARK   63  A    between atoms: _137  and  _138
REMARK   64  A    between atoms: _137  and  _140
REMARK   65  A    between atoms: _143  and  _145
REMARK   66  A    between atoms: _145  and  _146
REMARK   67  A    between atoms: _145  and  _148
REMARK   68  A    between atoms: _148  and  _149
REMARK   69  A    between atoms: _154  and  _155
REMARK   70  A    between atoms: _157  and  _159
REMARK   71  A    between atoms: _159  and  _160
REMARK   72  A    between atoms: _163  and  _165
REMARK   73  A    between atoms: _165  and  _166
REMARK   74  A    between atoms: _165  and  _168
REMARK   75  A    between atoms: _168  and  _169
REMARK   76  A    between atoms: _175  and  _177
REMARK   77  A    between atoms: _177  and  _178
REMARK   78  A    between atoms: _177  and  _180
REMARK   79  A    between atoms: _180  and  _181
REMARK   80  A    between atoms: _183  and  _185
REMARK   81  A    between atoms: _185  and  _186
REMARK   82  A    between atoms: _185  and  _188
REMARK   83  A    between atoms: _188  and  _189
REMARK   84  A    between atoms: _194  and  _196
REMARK   85  A    between atoms: _196  and  _197
REMARK   86  A    between atoms: _196  and  _199
REMARK   87  A    between atoms: _202  and  _204
REMARK   88  A    between atoms: _204  and  _205
REMARK   89  A    between atoms: _204  and  _207
REMARK   90  A    between atoms: _207  and  _208
REMARK   91  A    between atoms: _208  and  _209
REMARK   92  A    between atoms: _209  and  _210
REMARK   93  A    between atoms: _210  and  _211
REMARK   94  A    between atoms: _215  and  _217
REMARK   95  A    between atoms: _217  and  _218
REMARK   96  A    between atoms: _217  and  _220
REMARK   97  A    between atoms: _220  and  _221
REMARK   98  A    between atoms: _227  and  _229
REMARK   99  A    between atoms: _229  and  _230
REMARK  100  A    between atoms: _229  and  _232
REMARK  101  A    between atoms: _232  and  _233
REMARK  102  A    between atoms: _236  and  _238
REMARK  103  A    between atoms: _238  and  _239
REMARK  104  A    between atoms: _238  and  _241
REMARK  105  A    between atoms: _241  and  _242
REMARK  106  A    between atoms: _242  and  _243
REMARK  107  A    between atoms: _245  and  _247
REMARK  108  A    between atoms: _247  and  _248
REMARK  109  A    between atoms: _247  and  _250
REMARK  110  A    between atoms: _250  and  _251
REMARK  111  A    between atoms: _256  and  _258
REMARK  112  A    between atoms: _258  and  _259
REMARK  113  A    between atoms: _258  and  _261
REMARK  114  A    between atoms: _261  and  _262
REMARK  115  A    between atoms: _266  and  _267
REMARK  116  A    between atoms: _272  and  _274
REMARK  117  A    between atoms: _274  and  _275
REMARK  118  A    between atoms: _274  and  _277
REMARK  119  A    between atoms: _280  and  _282
REMARK  120  A    between atoms: _282  and  _283
REMARK  121  A    between atoms: _282  and  _285
REMARK  122  A    between atoms: _285  and  _286
REMARK  123  A    between atoms: _286  and  _287
REMARK  124  A    between atoms: _290  and  _292
REMARK  125  A    between atoms: _292  and  _293
REMARK  126  A    between atoms: _292  and  _295
REMARK  127  A    between atoms: _295  and  _296
REMARK  128  A    between atoms: _302  and  _304
REMARK  129  A    between atoms: _304  and  _305
REMARK  130  A    between atoms: _304  and  _307
REMARK  131  A    between atoms: _307  and  _308
REMARK  132  A    between atoms: _313  and  _314
REMARK  133  A    between atoms: _316  and  _318
REMARK  134  A    between atoms: _318  and  _319
REMARK  135  A    between atoms: _318  and  _321
REMARK  136  A    between atoms: _321  and  _322
REMARK  137  A    between atoms: _325  and  _327
REMARK  138  A    between atoms: _327  and  _328
REMARK  139  A    between atoms: _327  and  _330
REMARK  140  A    between atoms: _330  and  _331
REMARK  141  A    between atoms: _336  and  _338
REMARK  142  A    between atoms: _338  and  _339
REMARK  143  A    between atoms: _338  and  _341
REMARK  144  A    between atoms: _341  and  _342
REMARK  145  A    between atoms: _347  and  _348
REMARK  146  A    between atoms: _350  and  _352
REMARK  147  A    between atoms: _352  and  _353
REMARK  148  A    between atoms: _352  and  _355
REMARK  149  A    between atoms: _359  and  _360
REMARK  150  A    between atoms: _365  and  _367
REMARK  151  A    between atoms: _367  and  _368
REMARK  152  A    between atoms: _367  and  _370
REMARK  153  A    between atoms: _370  and  _371
REMARK  154  A    between atoms: _371  and  _372
REMARK  155  A    between atoms: _375  and  _377
REMARK  156  A    between atoms: _377  and  _378
REMARK  157  A    between atoms: _377  and  _380
REMARK  158  A    between atoms: _380  and  _381
REMARK  159  A    between atoms: _384  and  _386
REMARK  160  A    between atoms: _386  and  _387
REMARK  161  A    between atoms: _386  and  _389
REMARK  162  A    between atoms: _389  and  _390
REMARK  163  A    between atoms: _395  and  _397
REMARK  164  A    between atoms: _397  and  _398
REMARK  165  A    between atoms: _397  and  _400
REMARK  166  A    between atoms: _403  and  _405
REMARK  167  A    between atoms: _405  and  _406
REMARK  168  A    between atoms: _405  and  _408
REMARK  169  A    between atoms: _408  and  _409
REMARK  170  A    between atoms: _412  and  _414
REMARK  171  A    between atoms: _414  and  _415
REMARK  172  A    between atoms: _414  and  _417
REMARK  173  A    between atoms: _417  and  _418
REMARK  174  A    between atoms: _418  and  _419
REMARK  175  A    between atoms: _424  and  _426
REMARK  176  A    between atoms: _426  and  _427
REMARK  177  A    between atoms: _426  and  _429
REMARK  178  A    between atoms: _429  and  _430
REMARK  179  A    between atoms: _430  and  _431
REMARK  180  A    between atoms: _433  and  _435
REMARK  181  A    between atoms: _435  and  _436
REMARK  182  A    between atoms: _435  and  _438
REMARK  183  A    between atoms: _438  and  _439
REMARK  184  A    between atoms: _443  and  _444
REMARK  185  A    between atoms: _449  and  _451
REMARK  186  A    between atoms: _451  and  _452
REMARK  187  A    between atoms: _451  and  _454
REMARK  188  A    between atoms: _454  and  _455
REMARK  189  A    between atoms: _458  and  _460
REMARK  190  A    between atoms: _460  and  _461
REMARK  191  A    between atoms: _460  and  _463
REMARK  192  A    between atoms: _463  and  _464
REMARK  193  A    between atoms: _470  and  _472
REMARK  194  A    between atoms: _472  and  _473
REMARK  195  A    between atoms: _472  and  _475
REMARK  196  A    between atoms: _475  and  _476
REMARK  197  A    between atoms: _476  and  _477
REMARK  198  A    between atoms: _480  and  _482
REMARK  199  A    between atoms: _482  and  _483
REMARK  200  A    between atoms: _486  and  _488
REMARK  201  A    between atoms: _488  and  _489
REMARK  202  A    between atoms: _488  and  _491
REMARK  203  A    between atoms: _491  and  _492
REMARK  204  A    between atoms: _495  and  _497
REMARK  205  A    between atoms: _497  and  _498
REMARK  206  A    between atoms: _497  and  _500
REMARK  207  A    between atoms: _500  and  _501
REMARK  208  A    between atoms: _504  and  _506
REMARK  209  A    between atoms: _506  and  _507
REMARK  210  A    between atoms: _506  and  _509
REMARK  211  A    between atoms: _509  and  _510
REMARK  212  A    between atoms: _510  and  _511
REMARK  213  A    between atoms: _511  and  _512
REMARK  214  A    between atoms: _512  and  _513
REMARK  215  A    between atoms: _517  and  _519
REMARK  216  A    between atoms: _519  and  _520
REMARK  217  A    between atoms: _523  and  _525
REMARK  218  A    between atoms: _525  and  _526
REMARK  219  A    between atoms: _525  and  _528
REMARK  220  A    between atoms: _528  and  _529
REMARK  221  A    between atoms: _529  and  _530
REMARK  222  A    between atoms: _533  and  _535
REMARK  223  A    between atoms: _535  and  _536
REMARK  224  A    between atoms: _535  and  _538
REMARK  225  A    between atoms: _538  and  _539
REMARK  226  A    between atoms: _542  and  _544
REMARK  227  A    between atoms: _544  and  _545
REMARK  228  A    between atoms: _544  and  _547
REMARK  229  A    between atoms: _547  and  _548
REMARK  230  A    between atoms: _551  and  _553
REMARK  231  A    between atoms: _553  and  _554
REMARK  232  A    between atoms: _553  and  _556
REMARK  233  A    between atoms: _556  and  _557
REMARK  234  A    between atoms: _563  and  _565
REMARK  235  A    between atoms: _565  and  _566
REMARK  236  A    between atoms: _569  and  _571
REMARK  237  A    between atoms: _571  and  _572
REMARK  238  A    between atoms: _571  and  _574
REMARK  239  A    between atoms: _574  and  _575
REMARK  240  A    between atoms: _578  and  _580
REMARK  241  A    between atoms: _580  and  _581
REMARK  242  A    between atoms: _580  and  _583
REMARK  243  A    between atoms: _583  and  _584
REMARK  244  A    between atoms: _589  and  _591
REMARK  245  A    between atoms: _591  and  _592
REMARK  246  A    between atoms: _591  and  _594
REMARK  247  A    between atoms: _594  and  _595
REMARK                            x       y       z     vdW  Elec       q    Type
REMARK                         _______ _______ _______ _____ _____    ______ ____
ROOT
ATOM      1  C   HIS A   1      28.521 -12.750   1.461  0.00  0.00    +0.239 C 
ATOM      2  O   HIS A   1      28.359 -13.410   2.490  0.00  0.00    -0.274 OA
ATOM      3  N   LYS A   2      28.754 -13.309   0.261  0.00  0.00    -0.298 N 
ATOM      4  H   LYS A   2      28.853 -12.686  -0.566  0.00  0.00    +0.150 HD
ENDROOT
BRANCH   1   5
ATOM      5  CA  HIS A   1      28.529 -11.219   1.539  0.00  0.00    +0.151 C 
BRANCH   5   6
ATOM      6  N   HIS A   1      29.506 -10.640   0.617  0.00  0.00    -0.238 NA
ATOM      7  H   HIS A   1      29.147 -10.093  -0.191  0.00  0.00    +0.142 HD
ENDBRANCH   5   6
BRANCH   5   8
ATOM      8  CB  HIS A   1      27.135 -10.613   1.315  0.00  0.00    +0.074 C 
BRANCH   8   9
ATOM      9  CG  HIS A   1      27.066  -9.165   1.682  0.00  0.00    +0.082 A 
ATOM     10  ND1 HIS A   1      27.007  -8.757   3.001  0.00  0.00    -0.227 NA
ATOM     11  CE1 HIS A   1      26.975  -7.435   2.969  0.00  0.00    +0.199 A 
ATOM     12  NE2 HIS A   1      27.019  -6.975   1.714  0.00  0.00    -0.221 NA
ATOM     13  CD2 HIS A   1      27.090  -8.071   0.887  0.00  0.00    +0.115 A 
ENDBRANCH   8   9
ENDBRANCH   5   8
ENDBRANCH   1   5
BRANCH   3  14
ATOM     14  CA  LYS A   2      28.875 -14.758   0.066  0.00  0.00    +0.137 C 
BRANCH  14  15
ATOM     15  C   LYS A   2      30.166 -15.237   0.786  0.00  0.00    +0.227 C 
ATOM     16  O   LYS A   2      30.147 -16.267   1.459  0.00  0.00    -0.286 OA
ENDBRANCH  14  15
BRANCH  14  17
ATOM     17  CB  LYS A   2      28.897 -15.106  -1.439  0.00  0.00    +0.028 C 
BRANCH  17  18
ATOM     18  CG  LYS A   2      29.324 -16.543  -1.743  0.00  0.00    -0.000 C 
BRANCH  18  19
ATOM     19  CD  LYS A   2      28.158 -17.460  -2.068  0.00  0.00    -0.024 C 
BRANCH  19  20
ATOM     20  CE  LYS A   2      28.285 -17.974  -3.492  0.00  0.00    -0.086 C 
BRANCH  20  21
ATOM     21  NZ  LYS A   2      27.892 -16.946  -4.503  0.00  0.00    +0.380 N 
ATOM     22  HZ1 LYS A   2      26.902 -16.669  -4.347  0.00  0.00    -0.089 HD
ATOM     23  HZ2 LYS A   2      28.506 -16.112  -4.405  0.00  0.00    -0.089 HD
ATOM     24  HZ3 LYS A   2      27.996 -17.344  -5.458  0.00  0.00    -0.089 HD
ENDBRANCH  20  21
ENDBRANCH  19  20
ENDBRANCH  18  19
ENDBRANCH  17  18
ENDBRANCH  14  17
ENDBRANCH   3  14
TORSDOF 11
REMARK  Name = ../refined-set-2016/4q9o/4q9o_pocket.pdb
REMARK  247 active torsions:
REMARK  status: ('A' for Active; 'I' for Inactive)
REMARK    1  A    between atoms: _1  and  _3
REMARK    2  A    between atoms: _3  and  _4
REMARK    3  A    between atoms: _3  and  _6
REMARK    4  A    between atoms: _6  and  _7
REMARK    5  A    between atoms: _7  and  _8
REMARK    6  A    between atoms: _10  and  _12
REMARK    7  A    between atoms: _12  and  _13
REMARK    8  A    between atoms: _12  and  _15
REMARK    9  A    between atoms: _15  and  _16
REMARK   10  A    between atoms: _21  and  _23
REMARK   11  A    between atoms: _23  and  _24
REMARK   12  A    between atoms: _23  and  _26
REMARK   13  A    between atoms: _26  and  _27
REMARK   14  A    between atoms: _32  and  _34
REMARK   15  A    between atoms: _34  and  _35
REMARK   16  A    between atoms: _34  and  _37
REMARK   17  A    between atoms: _37  and  _38
REMARK   18  A    between atoms: _38  and  _39
REMARK   19  A    between atoms: _39  and  _40
REMARK   20  A    between atoms: _40  and  _41
REMARK   21  A    between atoms: _45  and  _47
REMARK   22  A    between atoms: _47  and  _48
REMARK   23  A    between atoms: _50  and  _52
REMARK   24  A    between atoms: _52  and  _53
REMARK   25  A    between atoms: _52  and  _55
REMARK   26  A    between atoms: _55  and  _56
REMARK   27  A    between atoms: _56  and  _57
REMARK   28  A    between atoms: _59  and  _61
REMARK   29  A    between atoms: _61  and  _62
REMARK   30  A    between atoms: _61  and  _64
REMARK   31  A    between atoms: _64  and  _65
REMARK   32  A    between atoms: _65  and  _66
REMARK   33  A    between atoms: _69  and  _71
REMARK   34  A    between atoms: _71  and  _72
REMARK   35  A    between atoms: _75  and  _77
REMARK   36  A    between atoms: _77  and  _78
REMARK   37  A    between atoms: _77  and  _80
REMARK   38  A    between atoms: _80  and  _81
REMARK   39  A    between atoms: _84  and  _86
REMARK   40  A    between atoms: _86  and  _87
REMARK   41  A    between atoms: _86  and  _89
REMARK   42  A    between atoms: _89  and  _90
REMARK   43  A    between atoms: _90  and  _91
REMARK   44  A    between atoms: _96  and  _98
REMARK   45  A    between atoms: _98  and  _99
REMARK   46  A    between atoms: _98  and  _101
REMARK   47  A    between atoms: _101  and  _102
REMARK   48  A    between atoms: _105  and  _107
REMARK   49  A    between atoms: _107  and  _108
REMARK   50  A    between atoms: _107  and  _110
REMARK   51  A    between atoms: _113  and  _115
REMARK   52  A    between atoms: _115  and  _116
REMARK   53  A    between atoms: _115  and  _118
REMARK   54  A    between atoms: _118  and  _119
REMARK   55  A    between atoms: _122  and  _124
REMARK   56  A    between atoms: _124  and  _125
REMARK   57  A    between atoms: _124  and  _127
REMARK   58  A    between atoms: _127  and  _128
REMARK   59  A    between atoms: _128  and  _129
REMARK   60  A    between atoms: _129  and  _130
REMARK   61  A    between atoms: _130  and  _131
REMARK   62  A    between atoms: _135  and  _137
REMARK   63  A    between atoms: _137  and  _138
REMARK   64  A    between atoms: _137  and  _140
REMARK   65  A    between atoms: _143  and  _145
REMARK   66  A    between atoms: _145  and  _146
REMARK   67  A    between atoms: _145  and  _148
REMARK   68  A    between atoms: _148  and  _149
REMARK   69  A    between atoms: _154  and  _155
REMARK   70  A    between atoms: _157  and  _159
REMARK   71  A    between atoms: _159  and  _160
REMARK   72  A    between atoms: _163  and  _165
REMARK   73  A    between atoms: _165  and  _166
REMARK   74  A    between atoms: _165  and  _168
REMARK   75  A    between atoms: _168  and  _169
REMARK   76  A    between atoms: _175  and  _177
REMARK   77  A    between atoms: _177  and  _178
REMARK   78  A    between atoms: _177  and  _180
REMARK   79  A    between atoms: _180  and  _181
REMARK   80  A    between atoms: _183  and  _185
REMARK   81  A    between atoms: _185  and  _186
REMARK   82  A    between atoms: _185  and  _188
REMARK   83  A    between atoms: _188  and  _189
REMARK   84  A    between atoms: _194  and  _196
REMARK   85  A    between atoms: _196  and  _197
REMARK   86  A    between atoms: _196  and  _199
REMARK   87  A    between atoms: _202  and  _204
REMARK   88  A    between atoms: _204  and  _205
REMARK   89  A    between atoms: _204  and  _207
REMARK   90  A    between atoms: _207  and  _208
REMARK   91  A    between atoms: _208  and  _209
REMARK   92  A    between atoms: _209  and  _210
REMARK   93  A    between atoms: _210  and  _211
REMARK   94  A    between atoms: _215  and  _217
REMARK   95  A    between atoms: _217  and  _218
REMARK   96  A    between atoms: _217  and  _220
REMARK   97  A    between atoms: _220  and  _221
REMARK   98  A    between atoms: _227  and  _229
REMARK   99  A    between atoms: _229  and  _230
REMARK  100  A    between atoms: _229  and  _232
REMARK  101  A    between atoms: _232  and  _233
REMARK  102  A    between atoms: _236  and  _238
REMARK  103  A    between atoms: _238  and  _239
REMARK  104  A    between atoms: _238  and  _241
REMARK  105  A    between atoms: _241  and  _242
REMARK  106  A    between atoms: _242  and  _243
REMARK  107  A    between atoms: _245  and  _247
REMARK  108  A    between atoms: _247  and  _248
REMARK  109  A    between atoms: _247  and  _250
REMARK  110  A    between atoms: _250  and  _251
REMARK  111  A    between atoms: _256  and  _258
REMARK  112  A    between atoms: _258  and  _259
REMARK  113  A    between atoms: _258  and  _261
REMARK  114  A    between atoms: _261  and  _262
REMARK  115  A    between atoms: _266  and  _267
REMARK  116  A    between atoms: _272  and  _274
REMARK  117  A    between atoms: _274  and  _275
REMARK  118  A    between atoms: _274  and  _277
REMARK  119  A    between atoms: _280  and  _282
REMARK  120  A    between atoms: _282  and  _283
REMARK  121  A    between atoms: _282  and  _285
REMARK  122  A    between atoms: _285  and  _286
REMARK  123  A    between atoms: _286  and  _287
REMARK  124  A    between atoms: _290  and  _292
REMARK  125  A    between atoms: _292  and  _293
REMARK  126  A    between atoms: _292  and  _295
REMARK  127  A    between atoms: _295  and  _296
REMARK  128  A    between atoms: _302  and  _304
REMARK  129  A    between atoms: _304  and  _305
REMARK  130  A    between atoms: _304  and  _307
REMARK  131  A    between atoms: _307  and  _308
REMARK  132  A    between atoms: _313  and  _314
REMARK  133  A    between atoms: _316  and  _318
REMARK  134  A    between atoms: _318  and  _319
REMARK  135  A    between atoms: _318  and  _321
REMARK  136  A    between atoms: _321  and  _322
REMARK  137  A    between atoms: _325  and  _327
REMARK  138  A    between atoms: _327  and  _328
REMARK  139  A    between atoms: _327  and  _330
REMARK  140  A    between atoms: _330  and  _331
REMARK  141  A    between atoms: _336  and  _338
REMARK  142  A    between atoms: _338  and  _339
REMARK  143  A    between atoms: _338  and  _341
REMARK  144  A    between atoms: _341  and  _342
REMARK  145  A    between atoms: _347  and  _348
REMARK  146  A    between atoms: _350  and  _352
REMARK  147  A    between atoms: _352  and  _353
REMARK  148  A    between atoms: _352  and  _355
REMARK  149  A    between atoms: _359  and  _360
REMARK  150  A    between atoms: _365  and  _367
REMARK  151  A    between atoms: _367  and  _368
REMARK  152  A    between atoms: _367  and  _370
REMARK  153  A    between atoms: _370  and  _371
REMARK  154  A    between atoms: _371  and  _372
REMARK  155  A    between atoms: _375  and  _377
REMARK  156  A    between atoms: _377  and  _378
REMARK  157  A    between atoms: _377  and  _380
REMARK  158  A    between atoms: _380  and  _381
REMARK  159  A    between atoms: _384  and  _386
REMARK  160  A    between atoms: _386  and  _387
REMARK  161  A    between atoms: _386  and  _389
REMARK  162  A    between atoms: _389  and  _390
REMARK  163  A    between atoms: _395  and  _397
REMARK  164  A    between atoms: _397  and  _398
REMARK  165  A    between atoms: _397  and  _400
REMARK  166  A    between atoms: _403  and  _405
REMARK  167  A    between atoms: _405  and  _406
REMARK  168  A    between atoms: _405  and  _408
REMARK  169  A    between atoms: _408  and  _409
REMARK  170  A    between atoms: _412  and  _414
REMARK  171  A    between atoms: _414  and  _415
REMARK  172  A    between atoms: _414  and  _417
REMARK  173  A    between atoms: _417  and  _418
REMARK  174  A    between atoms: _418  and  _419
REMARK  175  A    between atoms: _424  and  _426
REMARK  176  A    between atoms: _426  and  _427
REMARK  177  A    between atoms: _426  and  _429
REMARK  178  A    between atoms: _429  and  _430
REMARK  179  A    between atoms: _430  and  _431
REMARK  180  A    between atoms: _433  and  _435
REMARK  181  A    between atoms: _435  and  _436
REMARK  182  A    between atoms: _435  and  _438
REMARK  183  A    between atoms: _438  and  _439
REMARK  184  A    between atoms: _443  and  _444
REMARK  185  A    between atoms: _449  and  _451
REMARK  186  A    between atoms: _451  and  _452
REMARK  187  A    between atoms: _451  and  _454
REMARK  188  A    between atoms: _454  and  _455
REMARK  189  A    between atoms: _458  and  _460
REMARK  190  A    between atoms: _460  and  _461
REMARK  191  A    between atoms: _460  and  _463
REMARK  192  A    between atoms: _463  and  _464
REMARK  193  A    between atoms: _470  and  _472
REMARK  194  A    between atoms: _472  and  _473
REMARK  195  A    between atoms: _472  and  _475
REMARK  196  A    between atoms: _475  and  _476
REMARK  197  A    between atoms: _476  and  _477
REMARK  198  A    between atoms: _480  and  _482
REMARK  199  A    between atoms: _482  and  _483
REMARK  200  A    between atoms: _486  and  _488
REMARK  201  A    between atoms: _488  and  _489
REMARK  202  A    between atoms: _488  and  _491
REMARK  203  A    between atoms: _491  and  _492
REMARK  204  A    between atoms: _495  and  _497
REMARK  205  A    between atoms: _497  and  _498
REMARK  206  A    between atoms: _497  and  _500
REMARK  207  A    between atoms: _500  and  _501
REMARK  208  A    between atoms: _504  and  _506
REMARK  209  A    between atoms: _506  and  _507
REMARK  210  A    between atoms: _506  and  _509
REMARK  211  A    between atoms: _509  and  _510
REMARK  212  A    between atoms: _510  and  _511
REMARK  213  A    between atoms: _511  and  _512
REMARK  214  A    between atoms: _512  and  _513
REMARK  215  A    between atoms: _517  and  _519
REMARK  216  A    between atoms: _519  and  _520
REMARK  217  A    between atoms: _523  and  _525
REMARK  218  A    between atoms: _525  and  _526
REMARK  219  A    between atoms: _525  and  _528
REMARK  220  A    between atoms: _528  and  _529
REMARK  221  A    between atoms: _529  and  _530
REMARK  222  A    between atoms: _533  and  _535
REMARK  223  A    between atoms: _535  and  _536
REMARK  224  A    between atoms: _535  and  _538
REMARK  225  A    between atoms: _538  and  _539
REMARK  226  A    between atoms: _542  and  _544
REMARK  227  A    between atoms: _544  and  _545
REMARK  228  A    between atoms: _544  and  _547
REMARK  229  A    between atoms: _547  and  _548
REMARK  230  A    between atoms: _551  and  _553
REMARK  231  A    between atoms: _553  and  _554
REMARK  232  A    between atoms: _553  and  _556
REMARK  233  A    between atoms: _556  and  _557
REMARK  234  A    between atoms: _563  and  _565
REMARK  235  A    between atoms: _565  and  _566
REMARK  236  A    between atoms: _569  and  _571
REMARK  237  A    between atoms: _571  and  _572
REMARK  238  A    between atoms: _571  and  _574
REMARK  239  A    between atoms: _574  and  _575
REMARK  240  A    between atoms: _578  and  _580
REMARK  241  A    between atoms: _580  and  _581
REMARK  242  A    between atoms: _580  and  _583
REMARK  243  A    between atoms: _583  and  _584
REMARK  244  A    between atoms: _589  and  _591
REMARK  245  A    between atoms: _591  and  _592
REMARK  246  A    between atoms: _591  and  _594
REMARK  247  A    between atoms: _594  and  _595
REMARK                            x       y       z     vdW  Elec       q    Type
REMARK                         _______ _______ _______ _____ _____    ______ ____
ROOT
ATOM      1  CA  GLN A   6      31.399 -21.048   8.986  0.00  0.00    +0.149 C 
ENDROOT
BRANCH   1   4
ATOM      2  C   LEU A   5      31.301 -18.779   9.965  0.00  0.00    +0.241 C 
ATOM      3  O   LEU A   5      31.406 -19.196  11.118  0.00  0.00    -0.273 OA
ATOM      4  N   GLN A   6      31.296 -19.588   8.874  0.00  0.00    -0.297 N 
ATOM      5  H   GLN A   6      31.217 -19.160   7.930  0.00  0.00    +0.150 HD
BRANCH   2   6
ATOM      6  CA  LEU A   5      31.243 -17.274   9.737  0.00  0.00    +0.149 C 
BRANCH   6   9
ATOM      7  C   ALA A   4      33.447 -17.080   8.632  0.00  0.00    +0.241 C 
ATOM      8  O   ALA A   4      34.040 -17.618   9.571  0.00  0.00    -0.273 OA
ATOM      9  N   LEU A   5      32.104 -16.888   8.619  0.00  0.00    -0.297 N 
ATOM     10  H   LEU A   5      31.670 -16.449   7.782  0.00  0.00    +0.150 HD
BRANCH   7  11
ATOM     11  CA  ALA A   4      34.238 -16.663   7.380  0.00  0.00    +0.149 C 
ATOM     12  CB  ALA A   4      34.415 -15.146   7.324  0.00  0.00    +0.031 C 
BRANCH  11  15
ATOM     13  C   GLU A   3      33.367 -18.442   5.893  0.00  0.00    +0.241 C 
ATOM     14  O   GLU A   3      33.682 -19.363   6.653  0.00  0.00    -0.273 OA
ATOM     15  N   ALA A   4      33.582 -17.137   6.168  0.00  0.00    -0.297 N 
ATOM     16  H   ALA A   4      33.261 -16.430   5.476  0.00  0.00    +0.150 HD
BRANCH  13  17
ATOM     17  CA  GLU A   3      32.642 -18.751   4.591  0.00  0.00    +0.149 C 
BRANCH  17  20
ATOM     18  C   MET A   2      30.425 -17.899   5.281  0.00  0.00    +0.241 C 
ATOM     19  O   MET A   2      30.367 -18.617   6.280  0.00  0.00    -0.273 OA
ATOM     20  N   GLU A   3      31.473 -17.890   4.441  0.00  0.00    -0.297 N 
ATOM     21  H   GLU A   3      31.450 -17.231   3.637  0.00  0.00    +0.150 HD
BRANCH  18  22
ATOM     22  CA  MET A   2      29.316 -16.887   4.991  0.00  0.00    +0.149 C 
BRANCH  22  25
ATOM     23  C   GLY A   1      30.683 -14.811   5.386  0.00  0.00    +0.240 C 
ATOM     24  O   GLY A   1      30.924 -15.068   6.574  0.00  0.00    -0.274 OA
ATOM     25  N   MET A   2      29.925 -15.607   4.584  0.00  0.00    -0.297 N 
ATOM     26  H   MET A   2      29.762 -15.288   3.608  0.00  0.00    +0.150 HD
BRANCH  23  27
ATOM     27  CA  GLY A   1      31.260 -13.567   4.741  0.00  0.00    +0.169 C 
BRANCH  27  28
ATOM     28  N   GLY A   1      31.535 -13.774   3.324  0.00  0.00    -0.236 NA
ATOM     29  H   GLY A   1      30.963 -13.239   2.639  0.00  0.00    +0.142 HD
ENDBRANCH  27  28
ENDBRANCH  23  27
ENDBRANCH  22  25
BRANCH  22  30
ATOM     30  CB  MET A   2      28.354 -17.429   3.913  0.00  0.00    +0.041 C 
BRANCH  30  31
ATOM     31  CG  MET A   2      27.112 -16.584   3.720  0.00  0.00    +0.060 C 
BRANCH  31  32
ATOM     32  SD  MET A   2      25.994 -17.306   2.498  0.00  0.00    -0.139 S 
ATOM     33  CE  MET A   2      24.952 -18.304   3.574  0.00  0.00    +0.069 C 
ENDBRANCH  31  32
ENDBRANCH  30  31
ENDBRANCH  22  30
ENDBRANCH  18  22
ENDBRANCH  17  20
BRANCH  17  34
ATOM     34  CB  GLU A   3      33.584 -18.616   3.383  0.00  0.00    +0.041 C 
BRANCH  34  35
ATOM     35  CG  GLU A   3      33.116 -19.351   2.134  0.00  0.00    +0.116 C 
BRANCH  35  36
ATOM     36  CD  GLU A   3      32.854 -20.845   2.262  0.00  0.00    +0.365 C 
ATOM     37  OE2 GLU A   3      33.477 -21.508   3.125  0.00  0.00    -0.246 OA
ATOM     38  OE1 GLU A   3      31.998 -21.349   1.502  0.00  0.00    -0.246 OA
ENDBRANCH  35  36
ENDBRANCH  34  35
ENDBRANCH  17  34
ENDBRANCH  13  17
ENDBRANCH  11  15
ENDBRANCH   7  11
ENDBRANCH   6   9
BRANCH   6  39
ATOM     39  CB  LEU A   5      29.785 -16.772   9.548  0.00  0.00    +0.029 C 
BRANCH  39  40
ATOM     40  CG  LEU A   5      28.789 -17.012  10.708  0.00  0.00    +0.002 C 
ATOM     41  CD2 LEU A   5      29.293 -16.452  12.029  0.00  0.00    +0.000 C 
ATOM     42  CD1 LEU A   5      27.452 -16.429  10.399  0.00  0.00    +0.000 C 
ENDBRANCH  39  40
ENDBRANCH   6  39
ENDBRANCH   2   6
ENDBRANCH   1   4
BRANCH   1  43
ATOM     43  C   GLN A   6      32.677 -21.449   9.734  0.00  0.00    +0.241 C 
ATOM     44  O   GLN A   6      32.600 -22.238  10.680  0.00  0.00    -0.273 OA
ATOM     45  N   THR A   7      33.833 -20.862   9.335  0.00  0.00    -0.295 N 
ATOM     46  H   THR A   7      33.782 -20.195   8.539  0.00  0.00    +0.150 HD
BRANCH  45  47
ATOM     47  CA  THR A   7      35.152 -21.095   9.940  0.00  0.00    +0.176 C 
BRANCH  47  48
ATOM     48  C   THR A   7      35.147 -20.736  11.436  0.00  0.00    +0.243 C 
ATOM     49  O   THR A   7      35.527 -21.566  12.259  0.00  0.00    -0.273 OA
ATOM     50  N   VAL A   8      34.692 -19.512  11.766  0.00  0.00    -0.297 N 
ATOM     51  H   VAL A   8      34.360 -18.907  10.988  0.00  0.00    +0.150 HD
BRANCH  50  52
ATOM     52  CA  VAL A   8      34.621 -18.954  13.116  0.00  0.00    +0.149 C 
BRANCH  52  53
ATOM     53  C   VAL A   8      33.677 -19.774  14.003  0.00  0.00    +0.241 C 
ATOM     54  O   VAL A   8      34.057 -20.109  15.129  0.00  0.00    -0.273 OA
ATOM     55  N   THR A   9      32.466 -20.097  13.500  0.00  0.00    -0.295 N 
ATOM     56  H   THR A   9      32.225 -19.774  12.541  0.00  0.00    +0.150 HD
BRANCH  55  57
ATOM     57  CA  THR A   9      31.477 -20.881  14.242  0.00  0.00    +0.176 C 
BRANCH  57  58
ATOM     58  C   THR A   9      32.032 -22.260  14.623  0.00  0.00    +0.243 C 
ATOM     59  O   THR A   9      31.939 -22.640  15.791  0.00  0.00    -0.273 OA
ATOM     60  N   LYS A  10      32.625 -22.992  13.654  0.00  0.00    -0.298 N 
ATOM     61  H   LYS A  10      32.680 -22.597  12.693  0.00  0.00    +0.150 HD
BRANCH  60  62
ATOM     62  CA  LYS A  10      33.196 -24.324  13.903  0.00  0.00    +0.137 C 
BRANCH  62  63
ATOM     63  C   LYS A  10      34.362 -24.281  14.890  0.00  0.00    +0.227 C 
ATOM     64  O   LYS A  10      34.405 -25.103  15.812  0.00  0.00    -0.286 OA
ENDBRANCH  62  63
BRANCH  62  65
ATOM     65  CB  LYS A  10      33.631 -24.998  12.600  0.00  0.00    +0.028 C 
BRANCH  65  66
ATOM     66  CG  LYS A  10      32.489 -25.500  11.718  0.00  0.00    -0.000 C 
BRANCH  66  67
ATOM     67  CD  LYS A  10      32.950 -25.718  10.271  0.00  0.00    -0.024 C 
BRANCH  67  68
ATOM     68  CE  LYS A  10      34.028 -26.768  10.106  0.00  0.00    -0.086 C 
BRANCH  68  69
ATOM     69  NZ  LYS A  10      34.523 -26.843   8.707  0.00  0.00    +0.380 N 
ATOM     70  HZ1 LYS A  10      35.259 -27.574   8.640  0.00  0.00    -0.089 HD
ATOM     71  HZ2 LYS A  10      34.921 -25.922   8.431  0.00  0.00    -0.089 HD
ATOM     72  HZ3 LYS A  10      33.734 -27.085   8.074  0.00  0.00    -0.089 HD
ENDBRANCH  68  69
ENDBRANCH  67  68
ENDBRANCH  66  67
ENDBRANCH  65  66
ENDBRANCH  62  65
ENDBRANCH  60  62
ENDBRANCH  57  58
BRANCH  57  73
ATOM     73  CB  THR A   9      30.132 -20.954  13.481  0.00  0.00    +0.137 C 
ATOM     74  CG2 THR A   9      29.053 -21.677  14.261  0.00  0.00    +0.034 C 
BRANCH  73  75
ATOM     75  OG1 THR A   9      29.688 -19.632  13.194  0.00  0.00    -0.382 OA
ATOM     76  HG1 THR A   9      30.363 -19.172  12.635  0.00  0.00    +0.210 HD
ENDBRANCH  73  75
ENDBRANCH  57  73
ENDBRANCH  55  57
ENDBRANCH  52  53
BRANCH  52  77
ATOM     77  CB  VAL A   8      34.281 -17.428  13.075  0.00  0.00    +0.027 C 
ATOM     78  CG2 VAL A   8      33.978 -16.859  14.467  0.00  0.00    +0.002 C 
ATOM     79  CG1 VAL A   8      35.399 -16.637  12.394  0.00  0.00    +0.002 C 
ENDBRANCH  52  77
ENDBRANCH  50  52
ENDBRANCH  47  48
BRANCH  47  80
ATOM     80  CB  THR A   7      36.242 -20.337   9.141  0.00  0.00    +0.137 C 
ATOM     81  CG2 THR A   7      37.647 -20.494   9.734  0.00  0.00    +0.034 C 
BRANCH  80  82
ATOM     82  OG1 THR A   7      36.233 -20.805   7.794  0.00  0.00    -0.382 OA
ATOM     83  HG1 THR A   7      35.344 -20.636   7.393  0.00  0.00    +0.210 HD
ENDBRANCH  80  82
ENDBRANCH  47  80
ENDBRANCH  45  47
ENDBRANCH   1  43
BRANCH   1  84
ATOM     84  CB  GLN A   6      31.328 -21.724   7.601  0.00  0.00    +0.039 C 
BRANCH  84  85
ATOM     85  CG  GLN A   6      31.179 -23.258   7.659  0.00  0.00    +0.087 C 
BRANCH  85  86
ATOM     86  CD  GLN A   6      29.778 -23.790   7.943  0.00  0.00    +0.219 C 
ATOM     87  NE2 GLN A   6      28.816 -22.930   8.257  0.00  0.00    -0.329 N 
ATOM     88 HE21 GLN A   6      27.844 -23.269   8.408  0.00  0.00    +0.145 HD
ATOM     89 HE22 GLN A   6      29.034 -21.918   8.352  0.00  0.00    +0.145 HD
ATOM     90  OE1 GLN A   6      29.524 -24.995   7.829  0.00  0.00    -0.275 OA
ENDBRANCH  85  86
ENDBRANCH  84  85
ENDBRANCH   1  84
TORSDOF 41
REMARK  Name = ../refined-set-2016/4q9o/4q9o_pocket.pdb
REMARK  247 active torsions:
REMARK  status: ('A' for Active; 'I' for Inactive)
REMARK    1  A    between atoms: _1  and  _3
REMARK    2  A    between atoms: _3  and  _4
REMARK    3  A    between atoms: _3  and  _6
REMARK    4  A    between atoms: _6  and  _7
REMARK    5  A    between atoms: _7  and  _8
REMARK    6  A    between atoms: _10  and  _12
REMARK    7  A    between atoms: _12  and  _13
REMARK    8  A    between atoms: _12  and  _15
REMARK    9  A    between atoms: _15  and  _16
REMARK   10  A    between atoms: _21  and  _23
REMARK   11  A    between atoms: _23  and  _24
REMARK   12  A    between atoms: _23  and  _26
REMARK   13  A    between atoms: _26  and  _27
REMARK   14  A    between atoms: _32  and  _34
REMARK   15  A    between atoms: _34  and  _35
REMARK   16  A    between atoms: _34  and  _37
REMARK   17  A    between atoms: _37  and  _38
REMARK   18  A    between atoms: _38  and  _39
REMARK   19  A    between atoms: _39  and  _40
REMARK   20  A    between atoms: _40  and  _41
REMARK   21  A    between atoms: _45  and  _47
REMARK   22  A    between atoms: _47  and  _48
REMARK   23  A    between atoms: _50  and  _52
REMARK   24  A    between atoms: _52  and  _53
REMARK   25  A    between atoms: _52  and  _55
REMARK   26  A    between atoms: _55  and  _56
REMARK   27  A    between atoms: _56  and  _57
REMARK   28  A    between atoms: _59  and  _61
REMARK   29  A    between atoms: _61  and  _62
REMARK   30  A    between atoms: _61  and  _64
REMARK   31  A    between atoms: _64  and  _65
REMARK   32  A    between atoms: _65  and  _66
REMARK   33  A    between atoms: _69  and  _71
REMARK   34  A    between atoms: _71  and  _72
REMARK   35  A    between atoms: _75  and  _77
REMARK   36  A    between atoms: _77  and  _78
REMARK   37  A    between atoms: _77  and  _80
REMARK   38  A    between atoms: _80  and  _81
REMARK   39  A    between atoms: _84  and  _86
REMARK   40  A    between atoms: _86  and  _87
REMARK   41  A    between atoms: _86  and  _89
REMARK   42  A    between atoms: _89  and  _90
REMARK   43  A    between atoms: _90  and  _91
REMARK   44  A    between atoms: _96  and  _98
REMARK   45  A    between atoms: _98  and  _99
REMARK   46  A    between atoms: _98  and  _101
REMARK   47  A    between atoms: _101  and  _102
REMARK   48  A    between atoms: _105  and  _107
REMARK   49  A    between atoms: _107  and  _108
REMARK   50  A    between atoms: _107  and  _110
REMARK   51  A    between atoms: _113  and  _115
REMARK   52  A    between atoms: _115  and  _116
REMARK   53  A    between atoms: _115  and  _118
REMARK   54  A    between atoms: _118  and  _119
REMARK   55  A    between atoms: _122  and  _124
REMARK   56  A    between atoms: _124  and  _125
REMARK   57  A    between atoms: _124  and  _127
REMARK   58  A    between atoms: _127  and  _128
REMARK   59  A    between atoms: _128  and  _129
REMARK   60  A    between atoms: _129  and  _130
REMARK   61  A    between atoms: _130  and  _131
REMARK   62  A    between atoms: _135  and  _137
REMARK   63  A    between atoms: _137  and  _138
REMARK   64  A    between atoms: _137  and  _140
REMARK   65  A    between atoms: _143  and  _145
REMARK   66  A    between atoms: _145  and  _146
REMARK   67  A    between atoms: _145  and  _148
REMARK   68  A    between atoms: _148  and  _149
REMARK   69  A    between atoms: _154  and  _155
REMARK   70  A    between atoms: _157  and  _159
REMARK   71  A    between atoms: _159  and  _160
REMARK   72  A    between atoms: _163  and  _165
REMARK   73  A    between atoms: _165  and  _166
REMARK   74  A    between atoms: _165  and  _168
REMARK   75  A    between atoms: _168  and  _169
REMARK   76  A    between atoms: _175  and  _177
REMARK   77  A    between atoms: _177  and  _178
REMARK   78  A    between atoms: _177  and  _180
REMARK   79  A    between atoms: _180  and  _181
REMARK   80  A    between atoms: _183  and  _185
REMARK   81  A    between atoms: _185  and  _186
REMARK   82  A    between atoms: _185  and  _188
REMARK   83  A    between atoms: _188  and  _189
REMARK   84  A    between atoms: _194  and  _196
REMARK   85  A    between atoms: _196  and  _197
REMARK   86  A    between atoms: _196  and  _199
REMARK   87  A    between atoms: _202  and  _204
REMARK   88  A    between atoms: _204  and  _205
REMARK   89  A    between atoms: _204  and  _207
REMARK   90  A    between atoms: _207  and  _208
REMARK   91  A    between atoms: _208  and  _209
REMARK   92  A    between atoms: _209  and  _210
REMARK   93  A    between atoms: _210  and  _211
REMARK   94  A    between atoms: _215  and  _217
REMARK   95  A    between atoms: _217  and  _218
REMARK   96  A    between atoms: _217  and  _220
REMARK   97  A    between atoms: _220  and  _221
REMARK   98  A    between atoms: _227  and  _229
REMARK   99  A    between atoms: _229  and  _230
REMARK  100  A    between atoms: _229  and  _232
REMARK  101  A    between atoms: _232  and  _233
REMARK  102  A    between atoms: _236  and  _238
REMARK  103  A    between atoms: _238  and  _239
REMARK  104  A    between atoms: _238  and  _241
REMARK  105  A    between atoms: _241  and  _242
REMARK  106  A    between atoms: _242  and  _243
REMARK  107  A    between atoms: _245  and  _247
REMARK  108  A    between atoms: _247  and  _248
REMARK  109  A    between atoms: _247  and  _250
REMARK  110  A    between atoms: _250  and  _251
REMARK  111  A    between atoms: _256  and  _258
REMARK  112  A    between atoms: _258  and  _259
REMARK  113  A    between atoms: _258  and  _261
REMARK  114  A    between atoms: _261  and  _262
REMARK  115  A    between atoms: _266  and  _267
REMARK  116  A    between atoms: _272  and  _274
REMARK  117  A    between atoms: _274  and  _275
REMARK  118  A    between atoms: _274  and  _277
REMARK  119  A    between atoms: _280  and  _282
REMARK  120  A    between atoms: _282  and  _283
REMARK  121  A    between atoms: _282  and  _285
REMARK  122  A    between atoms: _285  and  _286
REMARK  123  A    between atoms: _286  and  _287
REMARK  124  A    between atoms: _290  and  _292
REMARK  125  A    between atoms: _292  and  _293
REMARK  126  A    between atoms: _292  and  _295
REMARK  127  A    between atoms: _295  and  _296
REMARK  128  A    between atoms: _302  and  _304
REMARK  129  A    between atoms: _304  and  _305
REMARK  130  A    between atoms: _304  and  _307
REMARK  131  A    between atoms: _307  and  _308
REMARK  132  A    between atoms: _313  and  _314
REMARK  133  A    between atoms: _316  and  _318
REMARK  134  A    between atoms: _318  and  _319
REMARK  135  A    between atoms: _318  and  _321
REMARK  136  A    between atoms: _321  and  _322
REMARK  137  A    between atoms: _325  and  _327
REMARK  138  A    between atoms: _327  and  _328
REMARK  139  A    between atoms: _327  and  _330
REMARK  140  A    between atoms: _330  and  _331
REMARK  141  A    between atoms: _336  and  _338
REMARK  142  A    between atoms: _338  and  _339
REMARK  143  A    between atoms: _338  and  _341
REMARK  144  A    between atoms: _341  and  _342
REMARK  145  A    between atoms: _347  and  _348
REMARK  146  A    between atoms: _350  and  _352
REMARK  147  A    between atoms: _352  and  _353
REMARK  148  A    between atoms: _352  and  _355
REMARK  149  A    between atoms: _359  and  _360
REMARK  150  A    between atoms: _365  and  _367
REMARK  151  A    between atoms: _367  and  _368
REMARK  152  A    between atoms: _367  and  _370
REMARK  153  A    between atoms: _370  and  _371
REMARK  154  A    between atoms: _371  and  _372
REMARK  155  A    between atoms: _375  and  _377
REMARK  156  A    between atoms: _377  and  _378
REMARK  157  A    between atoms: _377  and  _380
REMARK  158  A    between atoms: _380  and  _381
REMARK  159  A    between atoms: _384  and  _386
REMARK  160  A    between atoms: _386  and  _387
REMARK  161  A    between atoms: _386  and  _389
REMARK  162  A    between atoms: _389  and  _390
REMARK  163  A    between atoms: _395  and  _397
REMARK  164  A    between atoms: _397  and  _398
REMARK  165  A    between atoms: _397  and  _400
REMARK  166  A    between atoms: _403  and  _405
REMARK  167  A    between atoms: _405  and  _406
REMARK  168  A    between atoms: _405  and  _408
REMARK  169  A    between atoms: _408  and  _409
REMARK  170  A    between atoms: _412  and  _414
REMARK  171  A    between atoms: _414  and  _415
REMARK  172  A    between atoms: _414  and  _417
REMARK  173  A    between atoms: _417  and  _418
REMARK  174  A    between atoms: _418  and  _419
REMARK  175  A    between atoms: _424  and  _426
REMARK  176  A    between atoms: _426  and  _427
REMARK  177  A    between atoms: _426  and  _429
REMARK  178  A    between atoms: _429  and  _430
REMARK  179  A    between atoms: _430  and  _431
REMARK  180  A    between atoms: _433  and  _435
REMARK  181  A    between atoms: _435  and  _436
REMARK  182  A    between atoms: _435  and  _438
REMARK  183  A    between atoms: _438  and  _439
REMARK  184  A    between atoms: _443  and  _444
REMARK  185  A    between atoms: _449  and  _451
REMARK  186  A    between atoms: _451  and  _452
REMARK  187  A    between atoms: _451  and  _454
REMARK  188  A    between atoms: _454  and  _455
REMARK  189  A    between atoms: _458  and  _460
REMARK  190  A    between atoms: _460  and  _461
REMARK  191  A    between atoms: _460  and  _463
REMARK  192  A    between atoms: _463  and  _464
REMARK  193  A    between atoms: _470  and  _472
REMARK  194  A    between atoms: _472  and  _473
REMARK  195  A    between atoms: _472  and  _475
REMARK  196  A    between atoms: _475  and  _476
REMARK  197  A    between atoms: _476  and  _477
REMARK  198  A    between atoms: _480  and  _482
REMARK  199  A    between atoms: _482  and  _483
REMARK  200  A    between atoms: _486  and  _488
REMARK  201  A    between atoms: _488  and  _489
REMARK  202  A    between atoms: _488  and  _491
REMARK  203  A    between atoms: _491  and  _492
REMARK  204  A    between atoms: _495  and  _497
REMARK  205  A    between atoms: _497  and  _498
REMARK  206  A    between atoms: _497  and  _500
REMARK  207  A    between atoms: _500  and  _501
REMARK  208  A    between atoms: _504  and  _506
REMARK  209  A    between atoms: _506  and  _507
REMARK  210  A    between atoms: _506  and  _509
REMARK  211  A    between atoms: _509  and  _510
REMARK  212  A    between atoms: _510  and  _511
REMARK  213  A    between atoms: _511  and  _512
REMARK  214  A    between atoms: _512  and  _513
REMARK  215  A    between atoms: _517  and  _519
REMARK  216  A    between atoms: _519  and  _520
REMARK  217  A    between atoms: _523  and  _525
REMARK  218  A    between atoms: _525  and  _526
REMARK  219  A    between atoms: _525  and  _528
REMARK  220  A    between atoms: _528  and  _529
REMARK  221  A    between atoms: _529  and  _530
REMARK  222  A    between atoms: _533  and  _535
REMARK  223  A    between atoms: _535  and  _536
REMARK  224  A    between atoms: _535  and  _538
REMARK  225  A    between atoms: _538  and  _539
REMARK  226  A    between atoms: _542  and  _544
REMARK  227  A    between atoms: _544  and  _545
REMARK  228  A    between atoms: _544  and  _547
REMARK  229  A    between atoms: _547  and  _548
REMARK  230  A    between atoms: _551  and  _553
REMARK  231  A    between atoms: _553  and  _554
REMARK  232  A    between atoms: _553  and  _556
REMARK  233  A    between atoms: _556  and  _557
REMARK  234  A    between atoms: _563  and  _565
REMARK  235  A    between atoms: _565  and  _566
REMARK  236  A    between atoms: _569  and  _571
REMARK  237  A    between atoms: _571  and  _572
REMARK  238  A    between atoms: _571  and  _574
REMARK  239  A    between atoms: _574  and  _575
REMARK  240  A    between atoms: _578  and  _580
REMARK  241  A    between atoms: _580  and  _581
REMARK  242  A    between atoms: _580  and  _583
REMARK  243  A    between atoms: _583  and  _584
REMARK  244  A    between atoms: _589  and  _591
REMARK  245  A    between atoms: _591  and  _592
REMARK  246  A    between atoms: _591  and  _594
REMARK  247  A    between atoms: _594  and  _595
REMARK                            x       y       z     vdW  Elec       q    Type
REMARK                         _______ _______ _______ _____ _____    ______ ____
ROOT
ATOM      1  C   TYR A   2      24.676  -8.923  11.999  0.00  0.00    +0.241 C 
ATOM      2  N   ALA A   3      23.767  -9.814  11.624  0.00  0.00    -0.297 N 
ATOM      3  H   ALA A   3      23.164 -10.245  12.353  0.00  0.00    +0.150 HD
ATOM      4  O   TYR A   2      25.424  -8.340  11.200  0.00  0.00    -0.273 OA
ENDROOT
BRANCH   2   5
ATOM      5  CA  ALA A   3      23.577 -10.214  10.245  0.00  0.00    +0.149 C 
ATOM      6  CB  ALA A   3      22.914 -11.580  10.194  0.00  0.00    +0.031 C 
BRANCH   5   7
ATOM      7  C   ALA A   3      22.821  -9.187   9.394  0.00  0.00    +0.241 C 
ATOM      8  N   PHE A   4      21.758  -8.583   9.937  0.00  0.00    -0.297 N 
ATOM      9  H   PHE A   4      21.470  -8.825  10.906  0.00  0.00    +0.150 HD
ATOM     10  O   ALA A   3      23.206  -8.943   8.248  0.00  0.00    -0.273 OA
BRANCH   8  11
ATOM     11  CA  PHE A   4      20.998  -7.589   9.187  0.00  0.00    +0.153 C 
BRANCH  11  12
ATOM     12  C   PHE A   4      20.326  -6.621  10.145  0.00  0.00    +0.241 C 
ATOM     13  O   PHE A   4      19.497  -7.027  10.962  0.00  0.00    -0.273 OA
ATOM     14  N   SER A   5      20.709  -5.342  10.052  0.00  0.00    -0.296 N 
ATOM     15  H   SER A   5      21.452  -5.102   9.365  0.00  0.00    +0.150 HD
BRANCH  14  16
ATOM     16  CA  SER A   5      20.145  -4.265  10.859  0.00  0.00    +0.166 C 
BRANCH  16  17
ATOM     17  CB  SER A   5      18.917  -3.680  10.179  0.00  0.00    +0.229 C 
ATOM     18  OG  SER A   5      18.686  -3.917   8.992  0.00  0.00    -0.286 OA
ENDBRANCH  16  17
BRANCH  16  19
ATOM     19  C   SER A   5      21.180  -3.167  11.109  0.00  0.00    +0.165 C 
BRANCH  19  20
ATOM     20  O   SER A   5      21.358  -2.318   9.989  0.00  0.00    -0.380 OA
ATOM     21  H   SER A   5      21.665  -2.854   9.215  0.00  0.00    +0.211 HD
ENDBRANCH  19  20
ENDBRANCH  16  19
ENDBRANCH  14  16
ENDBRANCH  11  12
BRANCH  11  22
ATOM     22  CB  PHE A   4      19.970  -8.252   8.225  0.00  0.00    +0.055 C 
BRANCH  22  23
ATOM     23  CG  PHE A   4      19.486  -7.361   7.101  0.00  0.00    -0.020 A 
ATOM     24  CD2 PHE A   4      18.338  -6.587   7.248  0.00  0.00    -0.004 A 
ATOM     25  CE2 PHE A   4      17.888  -5.761   6.208  0.00  0.00    -0.000 A 
ATOM     26  CZ  PHE A   4      18.555  -5.746   5.002  0.00  0.00    -0.000 A 
ATOM     27  CE1 PHE A   4      19.694  -6.515   4.833  0.00  0.00    -0.000 A 
ATOM     28  CD1 PHE A   4      20.157  -7.323   5.881  0.00  0.00    -0.004 A 
ENDBRANCH  22  23
ENDBRANCH  11  22
ENDBRANCH   8  11
ENDBRANCH   5   7
ENDBRANCH   2   5
BRANCH   1  29
ATOM     29  CA  TYR A   2      24.803  -8.725  13.515  0.00  0.00    +0.153 C 
BRANCH  29  32
ATOM     30  C   VAL A   1      25.141 -11.003  14.353  0.00  0.00    +0.238 C 
ATOM     31  O   VAL A   1      23.936 -11.240  14.334  0.00  0.00    -0.274 OA
ATOM     32  N   TYR A   2      25.644  -9.814  14.015  0.00  0.00    -0.297 N 
ATOM     33  H   TYR A   2      26.667  -9.656  14.110  0.00  0.00    +0.150 HD
BRANCH  30  34
ATOM     34  CA  VAL A   1      26.133 -12.074  14.832  0.00  0.00    +0.145 C 
BRANCH  34  35
ATOM     35  CB  VAL A   1      26.667 -12.976  13.689  0.00  0.00    +0.025 C 
ATOM     36  CG2 VAL A   1      27.804 -13.874  14.188  0.00  0.00    +0.002 C 
ATOM     37  CG1 VAL A   1      25.559 -13.808  13.015  0.00  0.00    +0.002 C 
ENDBRANCH  34  35
BRANCH  34  38
ATOM     38  N   VAL A   1      25.588 -12.834  15.959  0.00  0.00    -0.238 NA
ATOM     39  H   VAL A   1      24.839 -13.536  15.791  0.00  0.00    +0.142 HD
ENDBRANCH  34  38
ENDBRANCH  30  34
ENDBRANCH  29  32
BRANCH  29  40
ATOM     40  CB  TYR A   2      25.391  -7.354  13.882  0.00  0.00    +0.055 C 
BRANCH  40  41
ATOM     41  CG  TYR A   2      24.378  -6.224  13.951  0.00  0.00    -0.020 A 
ATOM     42  CD2 TYR A   2      24.772  -4.929  14.276  0.00  0.00    -0.001 A 
ATOM     43  CE2 TYR A   2      23.843  -3.896  14.397  0.00  0.00    +0.036 A 
ATOM     44  CZ  TYR A   2      22.500  -4.153  14.188  0.00  0.00    +0.134 A 
ATOM     45  CE1 TYR A   2      22.082  -5.431  13.843  0.00  0.00    +0.036 A 
ATOM     46  CD1 TYR A   2      23.018  -6.456  13.730  0.00  0.00    -0.001 A 
BRANCH  44  47
ATOM     47  OH  TYR A   2      21.597  -3.128  14.289  0.00  0.00    -0.506 OA
ATOM     48  HH  TYR A   2      20.686  -3.474  14.113  0.00  0.00    +0.292 HD
ENDBRANCH  44  47
ENDBRANCH  40  41
ENDBRANCH  29  40
ENDBRANCH   1  29
TORSDOF 18
REMARK  Name = ../refined-set-2016/4q9o/4q9o_pocket.pdb
REMARK  247 active torsions:
REMARK  status: ('A' for Active; 'I' for Inactive)
REMARK    1  A    between atoms: _1  and  _3
REMARK    2  A    between atoms: _3  and  _4
REMARK    3  A    between atoms: _3  and  _6
REMARK    4  A    between atoms: _6  and  _7
REMARK    5  A    between atoms: _7  and  _8
REMARK    6  A    between atoms: _10  and  _12
REMARK    7  A    between atoms: _12  and  _13
REMARK    8  A    between atoms: _12  and  _15
REMARK    9  A    between atoms: _15  and  _16
REMARK   10  A    between atoms: _21  and  _23
REMARK   11  A    between atoms: _23  and  _24
REMARK   12  A    between atoms: _23  and  _26
REMARK   13  A    between atoms: _26  and  _27
REMARK   14  A    between atoms: _32  and  _34
REMARK   15  A    between atoms: _34  and  _35
REMARK   16  A    between atoms: _34  and  _37
REMARK   17  A    between atoms: _37  and  _38
REMARK   18  A    between atoms: _38  and  _39
REMARK   19  A    between atoms: _39  and  _40
REMARK   20  A    between atoms: _40  and  _41
REMARK   21  A    between atoms: _45  and  _47
REMARK   22  A    between atoms: _47  and  _48
REMARK   23  A    between atoms: _50  and  _52
REMARK   24  A    between atoms: _52  and  _53
REMARK   25  A    between atoms: _52  and  _55
REMARK   26  A    between atoms: _55  and  _56
REMARK   27  A    between atoms: _56  and  _57
REMARK   28  A    between atoms: _59  and  _61
REMARK   29  A    between atoms: _61  and  _62
REMARK   30  A    between atoms: _61  and  _64
REMARK   31  A    between atoms: _64  and  _65
REMARK   32  A    between atoms: _65  and  _66
REMARK   33  A    between atoms: _69  and  _71
REMARK   34  A    between atoms: _71  and  _72
REMARK   35  A    between atoms: _75  and  _77
REMARK   36  A    between atoms: _77  and  _78
REMARK   37  A    between atoms: _77  and  _80
REMARK   38  A    between atoms: _80  and  _81
REMARK   39  A    between atoms: _84  and  _86
REMARK   40  A    between atoms: _86  and  _87
REMARK   41  A    between atoms: _86  and  _89
REMARK   42  A    between atoms: _89  and  _90
REMARK   43  A    between atoms: _90  and  _91
REMARK   44  A    between atoms: _96  and  _98
REMARK   45  A    between atoms: _98  and  _99
REMARK   46  A    between atoms: _98  and  _101
REMARK   47  A    between atoms: _101  and  _102
REMARK   48  A    between atoms: _105  and  _107
REMARK   49  A    between atoms: _107  and  _108
REMARK   50  A    between atoms: _107  and  _110
REMARK   51  A    between atoms: _113  and  _115
REMARK   52  A    between atoms: _115  and  _116
REMARK   53  A    between atoms: _115  and  _118
REMARK   54  A    between atoms: _118  and  _119
REMARK   55  A    between atoms: _122  and  _124
REMARK   56  A    between atoms: _124  and  _125
REMARK   57  A    between atoms: _124  and  _127
REMARK   58  A    between atoms: _127  and  _128
REMARK   59  A    between atoms: _128  and  _129
REMARK   60  A    between atoms: _129  and  _130
REMARK   61  A    between atoms: _130  and  _131
REMARK   62  A    between atoms: _135  and  _137
REMARK   63  A    between atoms: _137  and  _138
REMARK   64  A    between atoms: _137  and  _140
REMARK   65  A    between atoms: _143  and  _145
REMARK   66  A    between atoms: _145  and  _146
REMARK   67  A    between atoms: _145  and  _148
REMARK   68  A    between atoms: _148  and  _149
REMARK   69  A    between atoms: _154  and  _155
REMARK   70  A    between atoms: _157  and  _159
REMARK   71  A    between atoms: _159  and  _160
REMARK   72  A    between atoms: _163  and  _165
REMARK   73  A    between atoms: _165  and  _166
REMARK   74  A    between atoms: _165  and  _168
REMARK   75  A    between atoms: _168  and  _169
REMARK   76  A    between atoms: _175  and  _177
REMARK   77  A    between atoms: _177  and  _178
REMARK   78  A    between atoms: _177  and  _180
REMARK   79  A    between atoms: _180  and  _181
REMARK   80  A    between atoms: _183  and  _185
REMARK   81  A    between atoms: _185  and  _186
REMARK   82  A    between atoms: _185  and  _188
REMARK   83  A    between atoms: _188  and  _189
REMARK   84  A    between atoms: _194  and  _196
REMARK   85  A    between atoms: _196  and  _197
REMARK   86  A    between atoms: _196  and  _199
REMARK   87  A    between atoms: _202  and  _204
REMARK   88  A    between atoms: _204  and  _205
REMARK   89  A    between atoms: _204  and  _207
REMARK   90  A    between atoms: _207  and  _208
REMARK   91  A    between atoms: _208  and  _209
REMARK   92  A    between atoms: _209  and  _210
REMARK   93  A    between atoms: _210  and  _211
REMARK   94  A    between atoms: _215  and  _217
REMARK   95  A    between atoms: _217  and  _218
REMARK   96  A    between atoms: _217  and  _220
REMARK   97  A    between atoms: _220  and  _221
REMARK   98  A    between atoms: _227  and  _229
REMARK   99  A    between atoms: _229  and  _230
REMARK  100  A    between atoms: _229  and  _232
REMARK  101  A    between atoms: _232  and  _233
REMARK  102  A    between atoms: _236  and  _238
REMARK  103  A    between atoms: _238  and  _239
REMARK  104  A    between atoms: _238  and  _241
REMARK  105  A    between atoms: _241  and  _242
REMARK  106  A    between atoms: _242  and  _243
REMARK  107  A    between atoms: _245  and  _247
REMARK  108  A    between atoms: _247  and  _248
REMARK  109  A    between atoms: _247  and  _250
REMARK  110  A    between atoms: _250  and  _251
REMARK  111  A    between atoms: _256  and  _258
REMARK  112  A    between atoms: _258  and  _259
REMARK  113  A    between atoms: _258  and  _261
REMARK  114  A    between atoms: _261  and  _262
REMARK  115  A    between atoms: _266  and  _267
REMARK  116  A    between atoms: _272  and  _274
REMARK  117  A    between atoms: _274  and  _275
REMARK  118  A    between atoms: _274  and  _277
REMARK  119  A    between atoms: _280  and  _282
REMARK  120  A    between atoms: _282  and  _283
REMARK  121  A    between atoms: _282  and  _285
REMARK  122  A    between atoms: _285  and  _286
REMARK  123  A    between atoms: _286  and  _287
REMARK  124  A    between atoms: _290  and  _292
REMARK  125  A    between atoms: _292  and  _293
REMARK  126  A    between atoms: _292  and  _295
REMARK  127  A    between atoms: _295  and  _296
REMARK  128  A    between atoms: _302  and  _304
REMARK  129  A    between atoms: _304  and  _305
REMARK  130  A    between atoms: _304  and  _307
REMARK  131  A    between atoms: _307  and  _308
REMARK  132  A    between atoms: _313  and  _314
REMARK  133  A    between atoms: _316  and  _318
REMARK  134  A    between atoms: _318  and  _319
REMARK  135  A    between atoms: _318  and  _321
REMARK  136  A    between atoms: _321  and  _322
REMARK  137  A    between atoms: _325  and  _327
REMARK  138  A    between atoms: _327  and  _328
REMARK  139  A    between atoms: _327  and  _330
REMARK  140  A    between atoms: _330  and  _331
REMARK  141  A    between atoms: _336  and  _338
REMARK  142  A    between atoms: _338  and  _339
REMARK  143  A    between atoms: _338  and  _341
REMARK  144  A    between atoms: _341  and  _342
REMARK  145  A    between atoms: _347  and  _348
REMARK  146  A    between atoms: _350  and  _352
REMARK  147  A    between atoms: _352  and  _353
REMARK  148  A    between atoms: _352  and  _355
REMARK  149  A    between atoms: _359  and  _360
REMARK  150  A    between atoms: _365  and  _367
REMARK  151  A    between atoms: _367  and  _368
REMARK  152  A    between atoms: _367  and  _370
REMARK  153  A    between atoms: _370  and  _371
REMARK  154  A    between atoms: _371  and  _372
REMARK  155  A    between atoms: _375  and  _377
REMARK  156  A    between atoms: _377  and  _378
REMARK  157  A    between atoms: _377  and  _380
REMARK  158  A    between atoms: _380  and  _381
REMARK  159  A    between atoms: _384  and  _386
REMARK  160  A    between atoms: _386  and  _387
REMARK  161  A    between atoms: _386  and  _389
REMARK  162  A    between atoms: _389  and  _390
REMARK  163  A    between atoms: _395  and  _397
REMARK  164  A    between atoms: _397  and  _398
REMARK  165  A    between atoms: _397  and  _400
REMARK  166  A    between atoms: _403  and  _405
REMARK  167  A    between atoms: _405  and  _406
REMARK  168  A    between atoms: _405  and  _408
REMARK  169  A    between atoms: _408  and  _409
REMARK  170  A    between atoms: _412  and  _414
REMARK  171  A    between atoms: _414  and  _415
REMARK  172  A    between atoms: _414  and  _417
REMARK  173  A    between atoms: _417  and  _418
REMARK  174  A    between atoms: _418  and  _419
REMARK  175  A    between atoms: _424  and  _426
REMARK  176  A    between atoms: _426  and  _427
REMARK  177  A    between atoms: _426  and  _429
REMARK  178  A    between atoms: _429  and  _430
REMARK  179  A    between atoms: _430  and  _431
REMARK  180  A    between atoms: _433  and  _435
REMARK  181  A    between atoms: _435  and  _436
REMARK  182  A    between atoms: _435  and  _438
REMARK  183  A    between atoms: _438  and  _439
REMARK  184  A    between atoms: _443  and  _444
REMARK  185  A    between atoms: _449  and  _451
REMARK  186  A    between atoms: _451  and  _452
REMARK  187  A    between atoms: _451  and  _454
REMARK  188  A    between atoms: _454  and  _455
REMARK  189  A    between atoms: _458  and  _460
REMARK  190  A    between atoms: _460  and  _461
REMARK  191  A    between atoms: _460  and  _463
REMARK  192  A    between atoms: _463  and  _464
REMARK  193  A    between atoms: _470  and  _472
REMARK  194  A    between atoms: _472  and  _473
REMARK  195  A    between atoms: _472  and  _475
REMARK  196  A    between atoms: _475  and  _476
REMARK  197  A    between atoms: _476  and  _477
REMARK  198  A    between atoms: _480  and  _482
REMARK  199  A    between atoms: _482  and  _483
REMARK  200  A    between atoms: _486  and  _488
REMARK  201  A    between atoms: _488  and  _489
REMARK  202  A    between atoms: _488  and  _491
REMARK  203  A    between atoms: _491  and  _492
REMARK  204  A    between atoms: _495  and  _497
REMARK  205  A    between atoms: _497  and  _498
REMARK  206  A    between atoms: _497  and  _500
REMARK  207  A    between atoms: _500  and  _501
REMARK  208  A    between atoms: _504  and  _506
REMARK  209  A    between atoms: _506  and  _507
REMARK  210  A    between atoms: _506  and  _509
REMARK  211  A    between atoms: _509  and  _510
REMARK  212  A    between atoms: _510  and  _511
REMARK  213  A    between atoms: _511  and  _512
REMARK  214  A    between atoms: _512  and  _513
REMARK  215  A    between atoms: _517  and  _519
REMARK  216  A    between atoms: _519  and  _520
REMARK  217  A    between atoms: _523  and  _525
REMARK  218  A    between atoms: _525  and  _526
REMARK  219  A    between atoms: _525  and  _528
REMARK  220  A    between atoms: _528  and  _529
REMARK  221  A    between atoms: _529  and  _530
REMARK  222  A    between atoms: _533  and  _535
REMARK  223  A    between atoms: _535  and  _536
REMARK  224  A    between atoms: _535  and  _538
REMARK  225  A    between atoms: _538  and  _539
REMARK  226  A    between atoms: _542  and  _544
REMARK  227  A    between atoms: _544  and  _545
REMARK  228  A    between atoms: _544  and  _547
REMARK  229  A    between atoms: _547  and  _548
REMARK  230  A    between atoms: _551  and  _553
REMARK  231  A    between atoms: _553  and  _554
REMARK  232  A    between atoms: _553  and  _556
REMARK  233  A    between atoms: _556  and  _557
REMARK  234  A    between atoms: _563  and  _565
REMARK  235  A    between atoms: _565  and  _566
REMARK  236  A    between atoms: _569  and  _571
REMARK  237  A    between atoms: _571  and  _572
REMARK  238  A    between atoms: _571  and  _574
REMARK  239  A    between atoms: _574  and  _575
REMARK  240  A    between atoms: _578  and  _580
REMARK  241  A    between atoms: _580  and  _581
REMARK  242  A    between atoms: _580  and  _583
REMARK  243  A    between atoms: _583  and  _584
REMARK  244  A    between atoms: _589  and  _591
REMARK  245  A    between atoms: _591  and  _592
REMARK  246  A    between atoms: _591  and  _594
REMARK  247  A    between atoms: _594  and  _595
REMARK                            x       y       z     vdW  Elec       q    Type
REMARK                         _______ _______ _______ _____ _____    ______ ____
ROOT
ATOM      1  CB  ASN A   1      20.880  -3.598   6.363  0.00  0.00    +0.110 C 
ENDROOT
BRANCH   1   2
ATOM      2  CG  ASN A   1      22.151  -3.616   7.182  0.00  0.00    +0.221 C 
ATOM      3  OD1 ASN A   1      22.453  -4.603   7.868  0.00  0.00    -0.275 OA
ATOM      4  ND2 ASN A   1      22.934  -2.543   7.128  0.00  0.00    -0.329 N 
ATOM      5 HD21 ASN A   1      23.822  -2.519   7.669  0.00  0.00    +0.145 HD
ATOM      6 HD22 ASN A   1      22.659  -1.727   6.545  0.00  0.00    +0.145 HD
ENDBRANCH   1   2
BRANCH   1   7
ATOM      7  CA  ASN A   1      20.291  -2.215   6.039  0.00  0.00    +0.142 C 
BRANCH   7   8
ATOM      8  N   ASN A   1      19.830  -1.516   7.244  0.00  0.00    -0.239 NA
ATOM      9  H   ASN A   1      19.666  -2.062   8.114  0.00  0.00    +0.142 HD
ENDBRANCH   7   8
BRANCH   7  10
ATOM     10  C   ASN A   1      19.213  -2.293   4.951  0.00  0.00    +0.225 C 
ATOM     11  O   ASN A   1      19.553  -2.497   3.790  0.00  0.00    -0.287 OA
ENDBRANCH   7  10
ENDBRANCH   1   7
TORSDOF 4
REMARK  Name = ../refined-set-2016/4q9o/4q9o_pocket.pdb
REMARK  247 active torsions:
REMARK  status: ('A' for Active; 'I' for Inactive)
REMARK    1  A    between atoms: _1  and  _3
REMARK    2  A    between atoms: _3  and  _4
REMARK    3  A    between atoms: _3  and  _6
REMARK    4  A    between atoms: _6  and  _7
REMARK    5  A    between atoms: _7  and  _8
REMARK    6  A    between atoms: _10  and  _12
REMARK    7  A    between atoms: _12  and  _13
REMARK    8  A    between atoms: _12  and  _15
REMARK    9  A    between atoms: _15  and  _16
REMARK   10  A    between atoms: _21  and  _23
REMARK   11  A    between atoms: _23  and  _24
REMARK   12  A    between atoms: _23  and  _26
REMARK   13  A    between atoms: _26  and  _27
REMARK   14  A    between atoms: _32  and  _34
REMARK   15  A    between atoms: _34  and  _35
REMARK   16  A    between atoms: _34  and  _37
REMARK   17  A    between atoms: _37  and  _38
REMARK   18  A    between atoms: _38  and  _39
REMARK   19  A    between atoms: _39  and  _40
REMARK   20  A    between atoms: _40  and  _41
REMARK   21  A    between atoms: _45  and  _47
REMARK   22  A    between atoms: _47  and  _48
REMARK   23  A    between atoms: _50  and  _52
REMARK   24  A    between atoms: _52  and  _53
REMARK   25  A    between atoms: _52  and  _55
REMARK   26  A    between atoms: _55  and  _56
REMARK   27  A    between atoms: _56  and  _57
REMARK   28  A    between atoms: _59  and  _61
REMARK   29  A    between atoms: _61  and  _62
REMARK   30  A    between atoms: _61  and  _64
REMARK   31  A    between atoms: _64  and  _65
REMARK   32  A    between atoms: _65  and  _66
REMARK   33  A    between atoms: _69  and  _71
REMARK   34  A    between atoms: _71  and  _72
REMARK   35  A    between atoms: _75  and  _77
REMARK   36  A    between atoms: _77  and  _78
REMARK   37  A    between atoms: _77  and  _80
REMARK   38  A    between atoms: _80  and  _81
REMARK   39  A    between atoms: _84  and  _86
REMARK   40  A    between atoms: _86  and  _87
REMARK   41  A    between atoms: _86  and  _89
REMARK   42  A    between atoms: _89  and  _90
REMARK   43  A    between atoms: _90  and  _91
REMARK   44  A    between atoms: _96  and  _98
REMARK   45  A    between atoms: _98  and  _99
REMARK   46  A    between atoms: _98  and  _101
REMARK   47  A    between atoms: _101  and  _102
REMARK   48  A    between atoms: _105  and  _107
REMARK   49  A    between atoms: _107  and  _108
REMARK   50  A    between atoms: _107  and  _110
REMARK   51  A    between atoms: _113  and  _115
REMARK   52  A    between atoms: _115  and  _116
REMARK   53  A    between atoms: _115  and  _118
REMARK   54  A    between atoms: _118  and  _119
REMARK   55  A    between atoms: _122  and  _124
REMARK   56  A    between atoms: _124  and  _125
REMARK   57  A    between atoms: _124  and  _127
REMARK   58  A    between atoms: _127  and  _128
REMARK   59  A    between atoms: _128  and  _129
REMARK   60  A    between atoms: _129  and  _130
REMARK   61  A    between atoms: _130  and  _131
REMARK   62  A    between atoms: _135  and  _137
REMARK   63  A    between atoms: _137  and  _138
REMARK   64  A    between atoms: _137  and  _140
REMARK   65  A    between atoms: _143  and  _145
REMARK   66  A    between atoms: _145  and  _146
REMARK   67  A    between atoms: _145  and  _148
REMARK   68  A    between atoms: _148  and  _149
REMARK   69  A    between atoms: _154  and  _155
REMARK   70  A    between atoms: _157  and  _159
REMARK   71  A    between atoms: _159  and  _160
REMARK   72  A    between atoms: _163  and  _165
REMARK   73  A    between atoms: _165  and  _166
REMARK   74  A    between atoms: _165  and  _168
REMARK   75  A    between atoms: _168  and  _169
REMARK   76  A    between atoms: _175  and  _177
REMARK   77  A    between atoms: _177  and  _178
REMARK   78  A    between atoms: _177  and  _180
REMARK   79  A    between atoms: _180  and  _181
REMARK   80  A    between atoms: _183  and  _185
REMARK   81  A    between atoms: _185  and  _186
REMARK   82  A    between atoms: _185  and  _188
REMARK   83  A    between atoms: _188  and  _189
REMARK   84  A    between atoms: _194  and  _196
REMARK   85  A    between atoms: _196  and  _197
REMARK   86  A    between atoms: _196  and  _199
REMARK   87  A    between atoms: _202  and  _204
REMARK   88  A    between atoms: _204  and  _205
REMARK   89  A    between atoms: _204  and  _207
REMARK   90  A    between atoms: _207  and  _208
REMARK   91  A    between atoms: _208  and  _209
REMARK   92  A    between atoms: _209  and  _210
REMARK   93  A    between atoms: _210  and  _211
REMARK   94  A    between atoms: _215  and  _217
REMARK   95  A    between atoms: _217  and  _218
REMARK   96  A    between atoms: _217  and  _220
REMARK   97  A    between atoms: _220  and  _221
REMARK   98  A    between atoms: _227  and  _229
REMARK   99  A    between atoms: _229  and  _230
REMARK  100  A    between atoms: _229  and  _232
REMARK  101  A    between atoms: _232  and  _233
REMARK  102  A    between atoms: _236  and  _238
REMARK  103  A    between atoms: _238  and  _239
REMARK  104  A    between atoms: _238  and  _241
REMARK  105  A    between atoms: _241  and  _242
REMARK  106  A    between atoms: _242  and  _243
REMARK  107  A    between atoms: _245  and  _247
REMARK  108  A    between atoms: _247  and  _248
REMARK  109  A    between atoms: _247  and  _250
REMARK  110  A    between atoms: _250  and  _251
REMARK  111  A    between atoms: _256  and  _258
REMARK  112  A    between atoms: _258  and  _259
REMARK  113  A    between atoms: _258  and  _261
REMARK  114  A    between atoms: _261  and  _262
REMARK  115  A    between atoms: _266  and  _267
REMARK  116  A    between atoms: _272  and  _274
REMARK  117  A    between atoms: _274  and  _275
REMARK  118  A    between atoms: _274  and  _277
REMARK  119  A    between atoms: _280  and  _282
REMARK  120  A    between atoms: _282  and  _283
REMARK  121  A    between atoms: _282  and  _285
REMARK  122  A    between atoms: _285  and  _286
REMARK  123  A    between atoms: _286  and  _287
REMARK  124  A    between atoms: _290  and  _292
REMARK  125  A    between atoms: _292  and  _293
REMARK  126  A    between atoms: _292  and  _295
REMARK  127  A    between atoms: _295  and  _296
REMARK  128  A    between atoms: _302  and  _304
REMARK  129  A    between atoms: _304  and  _305
REMARK  130  A    between atoms: _304  and  _307
REMARK  131  A    between atoms: _307  and  _308
REMARK  132  A    between atoms: _313  and  _314
REMARK  133  A    between atoms: _316  and  _318
REMARK  134  A    between atoms: _318  and  _319
REMARK  135  A    between atoms: _318  and  _321
REMARK  136  A    between atoms: _321  and  _322
REMARK  137  A    between atoms: _325  and  _327
REMARK  138  A    between atoms: _327  and  _328
REMARK  139  A    between atoms: _327  and  _330
REMARK  140  A    between atoms: _330  and  _331
REMARK  141  A    between atoms: _336  and  _338
REMARK  142  A    between atoms: _338  and  _339
REMARK  143  A    between atoms: _338  and  _341
REMARK  144  A    between atoms: _341  and  _342
REMARK  145  A    between atoms: _347  and  _348
REMARK  146  A    between atoms: _350  and  _352
REMARK  147  A    between atoms: _352  and  _353
REMARK  148  A    between atoms: _352  and  _355
REMARK  149  A    between atoms: _359  and  _360
REMARK  150  A    between atoms: _365  and  _367
REMARK  151  A    between atoms: _367  and  _368
REMARK  152  A    between atoms: _367  and  _370
REMARK  153  A    between atoms: _370  and  _371
REMARK  154  A    between atoms: _371  and  _372
REMARK  155  A    between atoms: _375  and  _377
REMARK  156  A    between atoms: _377  and  _378
REMARK  157  A    between atoms: _377  and  _380
REMARK  158  A    between atoms: _380  and  _381
REMARK  159  A    between atoms: _384  and  _386
REMARK  160  A    between atoms: _386  and  _387
REMARK  161  A    between atoms: _386  and  _389
REMARK  162  A    between atoms: _389  and  _390
REMARK  163  A    between atoms: _395  and  _397
REMARK  164  A    between atoms: _397  and  _398
REMARK  165  A    between atoms: _397  and  _400
REMARK  166  A    between atoms: _403  and  _405
REMARK  167  A    between atoms: _405  and  _406
REMARK  168  A    between atoms: _405  and  _408
REMARK  169  A    between atoms: _408  and  _409
REMARK  170  A    between atoms: _412  and  _414
REMARK  171  A    between atoms: _414  and  _415
REMARK  172  A    between atoms: _414  and  _417
REMARK  173  A    between atoms: _417  and  _418
REMARK  174  A    between atoms: _418  and  _419
REMARK  175  A    between atoms: _424  and  _426
REMARK  176  A    between atoms: _426  and  _427
REMARK  177  A    between atoms: _426  and  _429
REMARK  178  A    between atoms: _429  and  _430
REMARK  179  A    between atoms: _430  and  _431
REMARK  180  A    between atoms: _433  and  _435
REMARK  181  A    between atoms: _435  and  _436
REMARK  182  A    between atoms: _435  and  _438
REMARK  183  A    between atoms: _438  and  _439
REMARK  184  A    between atoms: _443  and  _444
REMARK  185  A    between atoms: _449  and  _451
REMARK  186  A    between atoms: _451  and  _452
REMARK  187  A    between atoms: _451  and  _454
REMARK  188  A    between atoms: _454  and  _455
REMARK  189  A    between atoms: _458  and  _460
REMARK  190  A    between atoms: _460  and  _461
REMARK  191  A    between atoms: _460  and  _463
REMARK  192  A    between atoms: _463  and  _464
REMARK  193  A    between atoms: _470  and  _472
REMARK  194  A    between atoms: _472  and  _473
REMARK  195  A    between atoms: _472  and  _475
REMARK  196  A    between atoms: _475  and  _476
REMARK  197  A    between atoms: _476  and  _477
REMARK  198  A    between atoms: _480  and  _482
REMARK  199  A    between atoms: _482  and  _483
REMARK  200  A    between atoms: _486  and  _488
REMARK  201  A    between atoms: _488  and  _489
REMARK  202  A    between atoms: _488  and  _491
REMARK  203  A    between atoms: _491  and  _492
REMARK  204  A    between atoms: _495  and  _497
REMARK  205  A    between atoms: _497  and  _498
REMARK  206  A    between atoms: _497  and  _500
REMARK  207  A    between atoms: _500  and  _501
REMARK  208  A    between atoms: _504  and  _506
REMARK  209  A    between atoms: _506  and  _507
REMARK  210  A    between atoms: _506  and  _509
REMARK  211  A    between atoms: _509  and  _510
REMARK  212  A    between atoms: _510  and  _511
REMARK  213  A    between atoms: _511  and  _512
REMARK  214  A    between atoms: _512  and  _513
REMARK  215  A    between atoms: _517  and  _519
REMARK  216  A    between atoms: _519  and  _520
REMARK  217  A    between atoms: _523  and  _525
REMARK  218  A    between atoms: _525  and  _526
REMARK  219  A    between atoms: _525  and  _528
REMARK  220  A    between atoms: _528  and  _529
REMARK  221  A    between atoms: _529  and  _530
REMARK  222  A    between atoms: _533  and  _535
REMARK  223  A    between atoms: _535  and  _536
REMARK  224  A    between atoms: _535  and  _538
REMARK  225  A    between atoms: _538  and  _539
REMARK  226  A    between atoms: _542  and  _544
REMARK  227  A    between atoms: _544  and  _545
REMARK  228  A    between atoms: _544  and  _547
REMARK  229  A    between atoms: _547  and  _548
REMARK  230  A    between atoms: _551  and  _553
REMARK  231  A    between atoms: _553  and  _554
REMARK  232  A    between atoms: _553  and  _556
REMARK  233  A    between atoms: _556  and  _557
REMARK  234  A    between atoms: _563  and  _565
REMARK  235  A    between atoms: _565  and  _566
REMARK  236  A    between atoms: _569  and  _571
REMARK  237  A    between atoms: _571  and  _572
REMARK  238  A    between atoms: _571  and  _574
REMARK  239  A    between atoms: _574  and  _575
REMARK  240  A    between atoms: _578  and  _580
REMARK  241  A    between atoms: _580  and  _581
REMARK  242  A    between atoms: _580  and  _583
REMARK  243  A    between atoms: _583  and  _584
REMARK  244  A    between atoms: _589  and  _591
REMARK  245  A    between atoms: _591  and  _592
REMARK  246  A    between atoms: _591  and  _594
REMARK  247  A    between atoms: _594  and  _595
REMARK                            x       y       z     vdW  Elec       q    Type
REMARK                         _______ _______ _______ _____ _____    ______ ____
ROOT
ATOM      1  CA  PHE A  11      23.182 -21.749   0.159  0.00  0.00    +0.153 C 
ENDROOT
BRANCH   1   3
ATOM      2  C   GLU A  10      21.284 -21.515  -1.388  0.00  0.00    +0.241 C 
ATOM      3  N   PHE A  11      21.985 -21.055  -0.329  0.00  0.00    -0.297 N 
ATOM      4  H   PHE A  11      21.669 -20.189   0.152  0.00  0.00    +0.150 HD
ATOM      5  O   GLU A  10      21.569 -22.559  -1.971  0.00  0.00    -0.273 OA
BRANCH   2   6
ATOM      6  CA  GLU A  10      20.128 -20.668  -1.924  0.00  0.00    +0.149 C 
BRANCH   6   9
ATOM      7  C   VAL A   9      18.486 -20.593  -0.080  0.00  0.00    +0.241 C 
ATOM      8  O   VAL A   9      18.291 -21.812  -0.101  0.00  0.00    -0.273 OA
ATOM      9  N   GLU A  10      19.358 -19.976  -0.893  0.00  0.00    -0.297 N 
ATOM     10  H   GLU A  10      19.493 -18.951  -0.783  0.00  0.00    +0.150 HD
BRANCH   7  11
ATOM     11  CA  VAL A   9      17.728 -19.709   0.925  0.00  0.00    +0.149 C 
BRANCH  11  14
ATOM     12  C   PRO A   8      19.363 -19.485   2.790  0.00  0.00    +0.241 C 
ATOM     13  O   PRO A   8      19.212 -20.651   3.169  0.00  0.00    -0.273 OA
ATOM     14  N   VAL A   9      18.684 -18.962   1.740  0.00  0.00    -0.297 N 
ATOM     15  H   VAL A   9      18.854 -17.965   1.499  0.00  0.00    +0.150 HD
BRANCH  12  18
ATOM     16  C   LEU A   7      21.506 -17.465   1.666  0.00  0.00    +0.244 C 
ATOM     17  N   PRO A   8      20.722 -17.346   2.779  0.00  0.00    -0.272 N 
ATOM     18  CA  PRO A   8      20.353 -18.562   3.533  0.00  0.00    +0.152 C 
ATOM     19  CB  PRO A   8      19.755 -18.000   4.820  0.00  0.00    +0.031 C 
ATOM     20  CG  PRO A   8      19.205 -16.667   4.425  0.00  0.00    +0.024 C 
ATOM     21  CD  PRO A   8      20.173 -16.130   3.428  0.00  0.00    +0.094 C 
ATOM     22  O   LEU A   7      21.862 -18.580   1.257  0.00  0.00    -0.273 OA
BRANCH  16  23
ATOM     23  CA  LEU A   7      21.887 -16.228   0.794  0.00  0.00    +0.149 C 
BRANCH  23  25
ATOM     24  C   ASN A   6      19.662 -15.976  -0.269  0.00  0.00    +0.241 C 
ATOM     25  N   LEU A   7      20.729 -15.438   0.349  0.00  0.00    -0.297 N 
ATOM     26  H   LEU A   7      20.735 -14.412   0.521  0.00  0.00    +0.150 HD
ATOM     27  O   ASN A   6      19.567 -17.183  -0.500  0.00  0.00    -0.273 OA
BRANCH  24  28
ATOM     28  CA  ASN A   6      18.520 -15.035  -0.711  0.00  0.00    +0.158 C 
BRANCH  28  31
ATOM     29  C   MET A   5      17.981 -13.591   1.236  0.00  0.00    +0.241 C 
ATOM     30  O   MET A   5      17.517 -14.514   1.904  0.00  0.00    -0.273 OA
ATOM     31  N   ASN A   6      18.489 -13.761   0.003  0.00  0.00    -0.297 N 
ATOM     32  H   ASN A   6      18.887 -12.928  -0.476  0.00  0.00    +0.150 HD
BRANCH  29  33
ATOM     33  CA  MET A   5      18.021 -12.178   1.818  0.00  0.00    +0.149 C 
BRANCH  33  36
ATOM     34  C   ILE A   4      20.451 -11.730   1.527  0.00  0.00    +0.241 C 
ATOM     35  O   ILE A   4      20.807 -12.762   2.077  0.00  0.00    -0.273 OA
ATOM     36  N   MET A   5      19.164 -11.394   1.345  0.00  0.00    -0.297 N 
ATOM     37  H   MET A   5      18.964 -10.513   0.831  0.00  0.00    +0.150 HD
BRANCH  34  38
ATOM     38  CA  ILE A   4      21.508 -10.795   0.931  0.00  0.00    +0.149 C 
BRANCH  38  40
ATOM     39  C   PHE A   3      21.053 -11.424  -1.442  0.00  0.00    +0.241 C 
ATOM     40  N   ILE A   4      21.200 -10.491  -0.473  0.00  0.00    -0.297 N 
ATOM     41  H   ILE A   4      21.087  -9.492  -0.740  0.00  0.00    +0.150 HD
ATOM     42  O   PHE A   3      21.205 -12.632  -1.254  0.00  0.00    -0.273 OA
BRANCH  39  43
ATOM     43  CA  PHE A   3      20.713 -10.919  -2.849  0.00  0.00    +0.153 C 
BRANCH  43  46
ATOM     44  C   LYS A   2      18.356 -10.311  -2.358  0.00  0.00    +0.241 C 
ATOM     45  O   LYS A   2      18.050 -11.446  -1.986  0.00  0.00    -0.273 OA
ATOM     46  N   PHE A   3      19.590  -9.978  -2.790  0.00  0.00    -0.297 N 
ATOM     47  H   PHE A   3      19.754  -8.998  -3.099  0.00  0.00    +0.150 HD
BRANCH  44  48
ATOM     48  CA  LYS A   2      17.306  -9.198  -2.323  0.00  0.00    +0.149 C 
BRANCH  48  51
ATOM     49  C   VAL A   1      18.369  -7.849  -0.503  0.00  0.00    +0.238 C 
ATOM     50  O   VAL A   1      18.459  -8.792   0.279  0.00  0.00    -0.274 OA
ATOM     51  N   LYS A   2      17.858  -7.965  -1.751  0.00  0.00    -0.297 N 
ATOM     52  H   LYS A   2      17.857  -7.115  -2.350  0.00  0.00    +0.150 HD
BRANCH  49  53
ATOM     53  CA  VAL A   1      18.926  -6.473  -0.096  0.00  0.00    +0.145 C 
BRANCH  53  54
ATOM     54  CB  VAL A   1      17.801  -5.485   0.356  0.00  0.00    +0.025 C 
ATOM     55  CG2 VAL A   1      16.890  -6.116   1.415  0.00  0.00    +0.002 C 
ATOM     56  CG1 VAL A   1      18.383  -4.162   0.869  0.00  0.00    +0.002 C 
ENDBRANCH  53  54
BRANCH  53  57
ATOM     57  N   VAL A   1      19.763  -5.934  -1.186  0.00  0.00    -0.238 NA
ATOM     58  H   VAL A   1      19.472  -5.031  -1.613  0.00  0.00    +0.142 HD
ENDBRANCH  53  57
ENDBRANCH  49  53
ENDBRANCH  48  51
BRANCH  48  59
ATOM     59  CB  LYS A   2      16.738  -8.933  -3.724  0.00  0.00    +0.029 C 
BRANCH  59  60
ATOM     60  CG  LYS A   2      15.863 -10.061  -4.257  0.00  0.00    +0.000 C 
BRANCH  60  61
ATOM     61  CD  LYS A   2      15.329  -9.755  -5.660  0.00  0.00    -0.024 C 
BRANCH  61  62
ATOM     62  CE  LYS A   2      13.926 -10.279  -5.913  0.00  0.00    -0.086 C 
BRANCH  62  63
ATOM     63  NZ  LYS A   2      13.841 -11.765  -5.851  0.00  0.00    +0.380 N 
ATOM     64  HZ1 LYS A   2      14.135 -12.089  -4.907  0.00  0.00    -0.089 HD
ATOM     65  HZ2 LYS A   2      12.861 -12.063  -6.031  0.00  0.00    -0.089 HD
ATOM     66  HZ3 LYS A   2      14.468 -12.177  -6.571  0.00  0.00    -0.089 HD
ENDBRANCH  62  63
ENDBRANCH  61  62
ENDBRANCH  60  61
ENDBRANCH  59  60
ENDBRANCH  48  59
ENDBRANCH  44  48
ENDBRANCH  43  46
BRANCH  43  67
ATOM     67  CB  PHE A   3      21.955 -10.264  -3.487  0.00  0.00    +0.055 C 
BRANCH  67  68
ATOM     68  CG  PHE A   3      23.169 -11.177  -3.574  0.00  0.00    -0.020 A 
ATOM     69  CD2 PHE A   3      24.017 -11.353  -2.475  0.00  0.00    -0.004 A 
ATOM     70  CE2 PHE A   3      25.122 -12.212  -2.551  0.00  0.00    -0.000 A 
ATOM     71  CZ  PHE A   3      25.406 -12.865  -3.732  0.00  0.00    -0.000 A 
ATOM     72  CE1 PHE A   3      24.583 -12.700  -4.830  0.00  0.00    -0.000 A 
ATOM     73  CD1 PHE A   3      23.462 -11.863  -4.749  0.00  0.00    -0.004 A 
ENDBRANCH  67  68
ENDBRANCH  43  67
ENDBRANCH  39  43
ENDBRANCH  38  40
BRANCH  38  74
ATOM     74  CB  ILE A   4      21.740  -9.489   1.753  0.00  0.00    +0.027 C 
ATOM     75  CG2 ILE A   4      21.674  -9.739   3.270  0.00  0.00    +0.002 C 
BRANCH  74  76
ATOM     76  CG1 ILE A   4      23.082  -8.832   1.345  0.00  0.00    +0.002 C 
ATOM     77  CD1 ILE A   4      23.302  -7.376   1.860  0.00  0.00    +0.000 C 
ENDBRANCH  74  76
ENDBRANCH  38  74
ENDBRANCH  34  38
ENDBRANCH  33  36
BRANCH  33  78
ATOM     78  CB  MET A   5      16.698 -11.428   1.554  0.00  0.00    +0.041 C 
BRANCH  78  79
ATOM     79  CG  MET A   5      16.516 -10.187   2.431  0.00  0.00    +0.060 C 
BRANCH  79  80
ATOM     80  SD  MET A   5      16.456 -10.574   4.190  0.00  0.00    -0.139 S 
ATOM     81  CE  MET A   5      16.819  -9.010   4.891  0.00  0.00    +0.069 C 
ENDBRANCH  79  80
ENDBRANCH  78  79
ENDBRANCH  33  78
ENDBRANCH  29  33
ENDBRANCH  28  31
BRANCH  28  82
ATOM     82  CB  ASN A   6      18.566 -14.786  -2.223  0.00  0.00    +0.114 C 
BRANCH  82  83
ATOM     83  CG  ASN A   6      18.514 -16.050  -3.043  0.00  0.00    +0.222 C 
ATOM     84  OD1 ASN A   6      17.513 -16.782  -3.035  0.00  0.00    -0.275 OA
ATOM     85  ND2 ASN A   6      19.636 -16.382  -3.677  0.00  0.00    -0.329 N 
ATOM     86 HD21 ASN A   6      20.453 -15.739  -3.659  0.00  0.00    +0.145 HD
ATOM     87 HD22 ASN A   6      19.696 -17.284  -4.191  0.00  0.00    +0.145 HD
ENDBRANCH  82  83
ENDBRANCH  28  82
ENDBRANCH  24  28
ENDBRANCH  23  25
BRANCH  23  88
ATOM     88  CB  LEU A   7      22.953 -15.349   1.477  0.00  0.00    +0.029 C 
BRANCH  88  89
ATOM     89  CG  LEU A   7      23.685 -14.370   0.560  0.00  0.00    +0.002 C 
ATOM     90  CD2 LEU A   7      24.553 -13.425   1.368  0.00  0.00    +0.000 C 
ATOM     91  CD1 LEU A   7      24.507 -15.112  -0.517  0.00  0.00    +0.000 C 
ENDBRANCH  88  89
ENDBRANCH  23  88
ENDBRANCH  16  23
ENDBRANCH  12  18
ENDBRANCH  11  14
BRANCH  11  92
ATOM     92  CB  VAL A   9      16.696 -18.774   0.228  0.00  0.00    +0.027 C 
ATOM     93  CG2 VAL A   9      16.026 -17.853   1.234  0.00  0.00    +0.002 C 
ATOM     94  CG1 VAL A   9      15.648 -19.571  -0.556  0.00  0.00    +0.002 C 
ENDBRANCH  11  92
ENDBRANCH   7  11
ENDBRANCH   6   9
BRANCH   6  95
ATOM     95  CB  GLU A  10      20.656 -19.650  -2.952  0.00  0.00    +0.041 C 
BRANCH  95  96
ATOM     96  CG  GLU A  10      20.932 -20.221  -4.340  0.00  0.00    +0.116 C 
BRANCH  96  97
ATOM     97  CD  GLU A  10      21.628 -19.263  -5.294  0.00  0.00    +0.365 C 
ATOM     98  OE2 GLU A  10      21.260 -18.067  -5.302  0.00  0.00    -0.246 OA
ATOM     99  OE1 GLU A  10      22.534 -19.701  -6.040  0.00  0.00    -0.246 OA
ENDBRANCH  96  97
ENDBRANCH  95  96
ENDBRANCH   6  95
ENDBRANCH   2   6
ENDBRANCH   1   3
BRANCH   1 100
ATOM    100  C   PHE A  11      22.995 -22.515   1.479  0.00  0.00    +0.241 C 
ATOM    101  O   PHE A  11      23.984 -22.833   2.148  0.00  0.00    -0.273 OA
ATOM    102  N   TYR A  12      21.737 -22.896   1.785  0.00  0.00    -0.297 N 
ATOM    103  H   TYR A  12      20.981 -22.630   1.122  0.00  0.00    +0.150 HD
BRANCH 102 104
ATOM    104  CA  TYR A  12      21.353 -23.654   2.976  0.00  0.00    +0.153 C 
BRANCH 104 105
ATOM    105  C   TYR A  12      22.162 -24.955   3.102  0.00  0.00    +0.241 C 
ATOM    106  O   TYR A  12      22.741 -25.208   4.158  0.00  0.00    -0.273 OA
ATOM    107  N   ASP A  13      22.192 -25.769   2.023  0.00  0.00    -0.297 N 
ATOM    108  H   ASP A  13      21.697 -25.449   1.166  0.00  0.00    +0.150 HD
BRANCH 107 109
ATOM    109  CA  ASP A  13      22.871 -27.071   1.968  0.00  0.00    +0.160 C 
BRANCH 109 110
ATOM    110  C   ASP A  13      24.388 -26.976   2.130  0.00  0.00    +0.241 C 
ATOM    111  O   ASP A  13      25.018 -27.940   2.576  0.00  0.00    -0.273 OA
ATOM    112  N   ASN A  14      24.962 -25.812   1.787  0.00  0.00    -0.297 N 
ATOM    113  H   ASN A  14      24.341 -25.046   1.457  0.00  0.00    +0.150 HD
BRANCH 112 114
ATOM    114  CA  ASN A  14      26.396 -25.546   1.844  0.00  0.00    +0.158 C 
BRANCH 114 115
ATOM    115  C   ASN A  14      26.936 -25.335   3.256  0.00  0.00    +0.241 C 
ATOM    116  N   TYR A  15      26.068 -24.895   4.191  0.00  0.00    -0.297 N 
ATOM    117  H   TYR A  15      25.066 -24.774   3.940  0.00  0.00    +0.150 HD
ATOM    118  O   ASN A  14      28.127 -25.573   3.495  0.00  0.00    -0.273 OA
BRANCH 116 119
ATOM    119  CA  TYR A  15      26.508 -24.586   5.544  0.00  0.00    +0.153 C 
BRANCH 119 120
ATOM    120  C   TYR A  15      25.775 -25.312   6.672  0.00  0.00    +0.241 C 
ATOM    121  O   TYR A  15      26.439 -25.813   7.577  0.00  0.00    -0.273 OA
ATOM    122  N   VAL A  16      24.426 -25.314   6.654  0.00  0.00    -0.297 N 
ATOM    123  H   VAL A  16      23.958 -24.899   5.824  0.00  0.00    +0.150 HD
BRANCH 122 124
ATOM    124  CA  VAL A  16      23.564 -25.858   7.718  0.00  0.00    +0.149 C 
BRANCH 124 125
ATOM    125  C   VAL A  16      23.839 -27.361   8.015  0.00  0.00    +0.244 C 
ATOM    126  O   VAL A  16      24.099 -27.639   9.187  0.00  0.00    -0.273 OA
ATOM    127  N   PRO A  17      23.828 -28.333   7.055  0.00  0.00    -0.272 N 
ATOM    128  CA  PRO A  17      24.116 -29.730   7.447  0.00  0.00    +0.152 C 
ATOM    129  CB  PRO A  17      24.045 -30.510   6.122  0.00  0.00    +0.031 C 
ATOM    130  CG  PRO A  17      23.209 -29.651   5.219  0.00  0.00    +0.024 C 
ATOM    131  CD  PRO A  17      23.525 -28.233   5.607  0.00  0.00    +0.094 C 
BRANCH 128 132
ATOM    132  C   PRO A  17      25.456 -29.917   8.164  0.00  0.00    +0.241 C 
ATOM    133  O   PRO A  17      25.539 -30.716   9.097  0.00  0.00    -0.273 OA
ATOM    134  N   GLU A  18      26.485 -29.151   7.755  0.00  0.00    -0.297 N 
ATOM    135  H   GLU A  18      26.329 -28.496   6.962  0.00  0.00    +0.150 HD
BRANCH 134 136
ATOM    136  CA  GLU A  18      27.810 -29.195   8.370  0.00  0.00    +0.149 C 
BRANCH 136 137
ATOM    137  C   GLU A  18      27.775 -28.630   9.792  0.00  0.00    +0.241 C 
ATOM    138  O   GLU A  18      28.402 -29.213  10.677  0.00  0.00    -0.273 OA
ATOM    139  N   LEU A  19      27.057 -27.508  10.018  0.00  0.00    -0.297 N 
ATOM    140  H   LEU A  19      26.577 -27.042   9.222  0.00  0.00    +0.150 HD
BRANCH 139 141
ATOM    141  CA  LEU A  19      26.940 -26.934  11.362  0.00  0.00    +0.149 C 
BRANCH 141 142
ATOM    142  C   LEU A  19      26.209 -27.899  12.290  0.00  0.00    +0.241 C 
ATOM    143  O   LEU A  19      26.636 -28.086  13.431  0.00  0.00    -0.273 OA
ATOM    144  N   HIS A  20      25.139 -28.552  11.777  0.00  0.00    -0.298 N 
ATOM    145  H   HIS A  20      24.855 -28.330  10.802  0.00  0.00    +0.150 HD
BRANCH 144 146
ATOM    146  CA  HIS A  20      24.361 -29.546  12.506  0.00  0.00    +0.143 C 
BRANCH 146 147
ATOM    147  C   HIS A  20      25.232 -30.755  12.865  0.00  0.00    +0.227 C 
ATOM    148  O   HIS A  20      25.165 -31.249  13.996  0.00  0.00    -0.286 OA
ENDBRANCH 146 147
BRANCH 146 149
ATOM    149  CB  HIS A  20      23.131 -29.983  11.689  0.00  0.00    +0.075 C 
BRANCH 149 150
ATOM    150  CG  HIS A  20      22.282 -30.986  12.396  0.00  0.00    +0.082 A 
ATOM    151  CD2 HIS A  20      21.558 -30.865  13.536  0.00  0.00    +0.115 A 
ATOM    152  NE2 HIS A  20      20.982 -32.076  13.765  0.00  0.00    -0.221 NA
ATOM    153  CE1 HIS A  20      21.313 -32.864  12.748  0.00  0.00    +0.199 A 
ATOM    154  ND1 HIS A  20      22.123 -32.255  11.905  0.00  0.00    -0.227 NA
ENDBRANCH 149 150
ENDBRANCH 146 149
ENDBRANCH 144 146
ENDBRANCH 141 142
BRANCH 141 155
ATOM    155  CB  LEU A  19      26.238 -25.572  11.342  0.00  0.00    +0.029 C 
BRANCH 155 156
ATOM    156  CG  LEU A  19      27.019 -24.377  10.816  0.00  0.00    +0.002 C 
ATOM    157  CD2 LEU A  19      28.396 -24.254  11.478  0.00  0.00    +0.000 C 
ATOM    158  CD1 LEU A  19      26.238 -23.123  11.035  0.00  0.00    +0.000 C 
ENDBRANCH 155 156
ENDBRANCH 141 155
ENDBRANCH 139 141
ENDBRANCH 136 137
BRANCH 136 159
ATOM    159  CB  GLU A  18      28.866 -28.469   7.510  0.00  0.00    +0.041 C 
BRANCH 159 160
ATOM    160  CG  GLU A  18      30.204 -28.351   8.222  0.00  0.00    +0.116 C 
BRANCH 160 161
ATOM    161  CD  GLU A  18      31.420 -27.915   7.438  0.00  0.00    +0.365 C 
ATOM    162  OE2 GLU A  18      32.500 -28.498   7.688  0.00  0.00    -0.246 OA
ATOM    163  OE1 GLU A  18      31.322 -26.941   6.655  0.00  0.00    -0.246 OA
ENDBRANCH 160 161
ENDBRANCH 159 160
ENDBRANCH 136 159
ENDBRANCH 134 136
ENDBRANCH 128 132
ENDBRANCH 124 125
BRANCH 124 164
ATOM    164  CB  VAL A  16      22.052 -25.561   7.503  0.00  0.00    +0.027 C 
ATOM    165  CG2 VAL A  16      21.217 -26.053   8.676  0.00  0.00    +0.002 C 
ATOM    166  CG1 VAL A  16      21.824 -24.071   7.309  0.00  0.00    +0.002 C 
ENDBRANCH 124 164
ENDBRANCH 122 124
ENDBRANCH 119 120
BRANCH 119 167
ATOM    167  CB  TYR A  15      26.453 -23.059   5.782  0.00  0.00    +0.055 C 
BRANCH 167 168
ATOM    168  CG  TYR A  15      27.287 -22.273   4.796  0.00  0.00    -0.020 A 
ATOM    169  CD2 TYR A  15      28.676 -22.221   4.911  0.00  0.00    -0.001 A 
ATOM    170  CE2 TYR A  15      29.455 -21.542   3.974  0.00  0.00    +0.036 A 
ATOM    171  CZ  TYR A  15      28.844 -20.898   2.908  0.00  0.00    +0.134 A 
ATOM    172  CE1 TYR A  15      27.465 -20.942   2.773  0.00  0.00    +0.036 A 
ATOM    173  CD1 TYR A  15      26.697 -21.630   3.713  0.00  0.00    -0.001 A 
BRANCH 171 174
ATOM    174  OH  TYR A  15      29.597 -20.207   1.984  0.00  0.00    -0.506 OA
ATOM    175  HH  TYR A  15      30.555 -20.274   2.224  0.00  0.00    +0.292 HD
ENDBRANCH 171 174
ENDBRANCH 167 168
ENDBRANCH 119 167
ENDBRANCH 116 119
ENDBRANCH 114 115
BRANCH 114 176
ATOM    176  CB  ASN A  14      26.735 -24.351   0.952  0.00  0.00    +0.114 C 
BRANCH 176 177
ATOM    177  CG  ASN A  14      26.453 -24.621  -0.497  0.00  0.00    +0.222 C 
ATOM    178  ND2 ASN A  14      25.259 -24.275  -0.945  0.00  0.00    -0.329 N 
ATOM    179 HD21 ASN A  14      24.595 -23.774  -0.321  0.00  0.00    +0.145 HD
ATOM    180 HD22 ASN A  14      24.984 -24.504  -1.921  0.00  0.00    +0.145 HD
ATOM    181  OD1 ASN A  14      27.268 -25.215  -1.204  0.00  0.00    -0.275 OA
ENDBRANCH 176 177
ENDBRANCH 114 176
ENDBRANCH 112 114
ENDBRANCH 109 110
BRANCH 109 182
ATOM    182  CB  ASP A  13      22.509 -27.833   0.674  0.00  0.00    +0.143 C 
BRANCH 182 183
ATOM    183  CG  ASP A  13      21.046 -28.246   0.520  0.00  0.00    +0.367 C 
ATOM    184  OD2 ASP A  13      20.292 -28.161   1.514  0.00  0.00    -0.246 OA
ATOM    185  OD1 ASP A  13      20.665 -28.682  -0.591  0.00  0.00    -0.246 OA
ENDBRANCH 182 183
ENDBRANCH 109 182
ENDBRANCH 107 109
ENDBRANCH 104 105
BRANCH 104 186
ATOM    186  CB  TYR A  12      19.836 -23.953   2.948  0.00  0.00    +0.055 C 
BRANCH 186 187
ATOM    187  CG  TYR A  12      19.317 -24.692   4.163  0.00  0.00    -0.020 A 
ATOM    188  CD2 TYR A  12      18.693 -24.012   5.202  0.00  0.00    -0.001 A 
ATOM    189  CE2 TYR A  12      18.196 -24.688   6.312  0.00  0.00    +0.036 A 
ATOM    190  CZ  TYR A  12      18.324 -26.065   6.394  0.00  0.00    +0.134 A 
ATOM    191  CE1 TYR A  12      18.942 -26.764   5.372  0.00  0.00    +0.036 A 
ATOM    192  CD1 TYR A  12      19.412 -26.080   4.256  0.00  0.00    -0.001 A 
BRANCH 190 193
ATOM    193  OH  TYR A  12      17.845 -26.743   7.489  0.00  0.00    -0.506 OA
ATOM    194  HH  TYR A  12      18.021 -27.711   7.379  0.00  0.00    +0.292 HD
ENDBRANCH 190 193
ENDBRANCH 186 187
ENDBRANCH 104 186
ENDBRANCH 102 104
ENDBRANCH   1 100
BRANCH   1 195
ATOM    195  CB  PHE A  11      24.366 -20.766   0.223  0.00  0.00    +0.055 C 
BRANCH 195 196
ATOM    196  CG  PHE A  11      24.578 -20.132  -1.136  0.00  0.00    -0.020 A 
ATOM    197  CD2 PHE A  11      24.313 -18.781  -1.341  0.00  0.00    -0.004 A 
ATOM    198  CE2 PHE A  11      24.453 -18.211  -2.609  0.00  0.00    -0.000 A 
ATOM    199  CZ  PHE A  11      24.822 -18.998  -3.684  0.00  0.00    -0.000 A 
ATOM    200  CE1 PHE A  11      25.057 -20.346  -3.507  0.00  0.00    -0.000 A 
ATOM    201  CD1 PHE A  11      24.941 -20.910  -2.238  0.00  0.00    -0.004 A 
ENDBRANCH 195 196
ENDBRANCH   1 195
TORSDOF 79
REMARK  Name = ../refined-set-2016/4q9o/4q9o_pocket.pdb
REMARK  247 active torsions:
REMARK  status: ('A' for Active; 'I' for Inactive)
REMARK    1  A    between atoms: _1  and  _3
REMARK    2  A    between atoms: _3  and  _4
REMARK    3  A    between atoms: _3  and  _6
REMARK    4  A    between atoms: _6  and  _7
REMARK    5  A    between atoms: _7  and  _8
REMARK    6  A    between atoms: _10  and  _12
REMARK    7  A    between atoms: _12  and  _13
REMARK    8  A    between atoms: _12  and  _15
REMARK    9  A    between atoms: _15  and  _16
REMARK   10  A    between atoms: _21  and  _23
REMARK   11  A    between atoms: _23  and  _24
REMARK   12  A    between atoms: _23  and  _26
REMARK   13  A    between atoms: _26  and  _27
REMARK   14  A    between atoms: _32  and  _34
REMARK   15  A    between atoms: _34  and  _35
REMARK   16  A    between atoms: _34  and  _37
REMARK   17  A    between atoms: _37  and  _38
REMARK   18  A    between atoms: _38  and  _39
REMARK   19  A    between atoms: _39  and  _40
REMARK   20  A    between atoms: _40  and  _41
REMARK   21  A    between atoms: _45  and  _47
REMARK   22  A    between atoms: _47  and  _48
REMARK   23  A    between atoms: _50  and  _52
REMARK   24  A    between atoms: _52  and  _53
REMARK   25  A    between atoms: _52  and  _55
REMARK   26  A    between atoms: _55  and  _56
REMARK   27  A    between atoms: _56  and  _57
REMARK   28  A    between atoms: _59  and  _61
REMARK   29  A    between atoms: _61  and  _62
REMARK   30  A    between atoms: _61  and  _64
REMARK   31  A    between atoms: _64  and  _65
REMARK   32  A    between atoms: _65  and  _66
REMARK   33  A    between atoms: _69  and  _71
REMARK   34  A    between atoms: _71  and  _72
REMARK   35  A    between atoms: _75  and  _77
REMARK   36  A    between atoms: _77  and  _78
REMARK   37  A    between atoms: _77  and  _80
REMARK   38  A    between atoms: _80  and  _81
REMARK   39  A    between atoms: _84  and  _86
REMARK   40  A    between atoms: _86  and  _87
REMARK   41  A    between atoms: _86  and  _89
REMARK   42  A    between atoms: _89  and  _90
REMARK   43  A    between atoms: _90  and  _91
REMARK   44  A    between atoms: _96  and  _98
REMARK   45  A    between atoms: _98  and  _99
REMARK   46  A    between atoms: _98  and  _101
REMARK   47  A    between atoms: _101  and  _102
REMARK   48  A    between atoms: _105  and  _107
REMARK   49  A    between atoms: _107  and  _108
REMARK   50  A    between atoms: _107  and  _110
REMARK   51  A    between atoms: _113  and  _115
REMARK   52  A    between atoms: _115  and  _116
REMARK   53  A    between atoms: _115  and  _118
REMARK   54  A    between atoms: _118  and  _119
REMARK   55  A    between atoms: _122  and  _124
REMARK   56  A    between atoms: _124  and  _125
REMARK   57  A    between atoms: _124  and  _127
REMARK   58  A    between atoms: _127  and  _128
REMARK   59  A    between atoms: _128  and  _129
REMARK   60  A    between atoms: _129  and  _130
REMARK   61  A    between atoms: _130  and  _131
REMARK   62  A    between atoms: _135  and  _137
REMARK   63  A    between atoms: _137  and  _138
REMARK   64  A    between atoms: _137  and  _140
REMARK   65  A    between atoms: _143  and  _145
REMARK   66  A    between atoms: _145  and  _146
REMARK   67  A    between atoms: _145  and  _148
REMARK   68  A    between atoms: _148  and  _149
REMARK   69  A    between atoms: _154  and  _155
REMARK   70  A    between atoms: _157  and  _159
REMARK   71  A    between atoms: _159  and  _160
REMARK   72  A    between atoms: _163  and  _165
REMARK   73  A    between atoms: _165  and  _166
REMARK   74  A    between atoms: _165  and  _168
REMARK   75  A    between atoms: _168  and  _169
REMARK   76  A    between atoms: _175  and  _177
REMARK   77  A    between atoms: _177  and  _178
REMARK   78  A    between atoms: _177  and  _180
REMARK   79  A    between atoms: _180  and  _181
REMARK   80  A    between atoms: _183  and  _185
REMARK   81  A    between atoms: _185  and  _186
REMARK   82  A    between atoms: _185  and  _188
REMARK   83  A    between atoms: _188  and  _189
REMARK   84  A    between atoms: _194  and  _196
REMARK   85  A    between atoms: _196  and  _197
REMARK   86  A    between atoms: _196  and  _199
REMARK   87  A    between atoms: _202  and  _204
REMARK   88  A    between atoms: _204  and  _205
REMARK   89  A    between atoms: _204  and  _207
REMARK   90  A    between atoms: _207  and  _208
REMARK   91  A    between atoms: _208  and  _209
REMARK   92  A    between atoms: _209  and  _210
REMARK   93  A    between atoms: _210  and  _211
REMARK   94  A    between atoms: _215  and  _217
REMARK   95  A    between atoms: _217  and  _218
REMARK   96  A    between atoms: _217  and  _220
REMARK   97  A    between atoms: _220  and  _221
REMARK   98  A    between atoms: _227  and  _229
REMARK   99  A    between atoms: _229  and  _230
REMARK  100  A    between atoms: _229  and  _232
REMARK  101  A    between atoms: _232  and  _233
REMARK  102  A    between atoms: _236  and  _238
REMARK  103  A    between atoms: _238  and  _239
REMARK  104  A    between atoms: _238  and  _241
REMARK  105  A    between atoms: _241  and  _242
REMARK  106  A    between atoms: _242  and  _243
REMARK  107  A    between atoms: _245  and  _247
REMARK  108  A    between atoms: _247  and  _248
REMARK  109  A    between atoms: _247  and  _250
REMARK  110  A    between atoms: _250  and  _251
REMARK  111  A    between atoms: _256  and  _258
REMARK  112  A    between atoms: _258  and  _259
REMARK  113  A    between atoms: _258  and  _261
REMARK  114  A    between atoms: _261  and  _262
REMARK  115  A    between atoms: _266  and  _267
REMARK  116  A    between atoms: _272  and  _274
REMARK  117  A    between atoms: _274  and  _275
REMARK  118  A    between atoms: _274  and  _277
REMARK  119  A    between atoms: _280  and  _282
REMARK  120  A    between atoms: _282  and  _283
REMARK  121  A    between atoms: _282  and  _285
REMARK  122  A    between atoms: _285  and  _286
REMARK  123  A    between atoms: _286  and  _287
REMARK  124  A    between atoms: _290  and  _292
REMARK  125  A    between atoms: _292  and  _293
REMARK  126  A    between atoms: _292  and  _295
REMARK  127  A    between atoms: _295  and  _296
REMARK  128  A    between atoms: _302  and  _304
REMARK  129  A    between atoms: _304  and  _305
REMARK  130  A    between atoms: _304  and  _307
REMARK  131  A    between atoms: _307  and  _308
REMARK  132  A    between atoms: _313  and  _314
REMARK  133  A    between atoms: _316  and  _318
REMARK  134  A    between atoms: _318  and  _319
REMARK  135  A    between atoms: _318  and  _321
REMARK  136  A    between atoms: _321  and  _322
REMARK  137  A    between atoms: _325  and  _327
REMARK  138  A    between atoms: _327  and  _328
REMARK  139  A    between atoms: _327  and  _330
REMARK  140  A    between atoms: _330  and  _331
REMARK  141  A    between atoms: _336  and  _338
REMARK  142  A    between atoms: _338  and  _339
REMARK  143  A    between atoms: _338  and  _341
REMARK  144  A    between atoms: _341  and  _342
REMARK  145  A    between atoms: _347  and  _348
REMARK  146  A    between atoms: _350  and  _352
REMARK  147  A    between atoms: _352  and  _353
REMARK  148  A    between atoms: _352  and  _355
REMARK  149  A    between atoms: _359  and  _360
REMARK  150  A    between atoms: _365  and  _367
REMARK  151  A    between atoms: _367  and  _368
REMARK  152  A    between atoms: _367  and  _370
REMARK  153  A    between atoms: _370  and  _371
REMARK  154  A    between atoms: _371  and  _372
REMARK  155  A    between atoms: _375  and  _377
REMARK  156  A    between atoms: _377  and  _378
REMARK  157  A    between atoms: _377  and  _380
REMARK  158  A    between atoms: _380  and  _381
REMARK  159  A    between atoms: _384  and  _386
REMARK  160  A    between atoms: _386  and  _387
REMARK  161  A    between atoms: _386  and  _389
REMARK  162  A    between atoms: _389  and  _390
REMARK  163  A    between atoms: _395  and  _397
REMARK  164  A    between atoms: _397  and  _398
REMARK  165  A    between atoms: _397  and  _400
REMARK  166  A    between atoms: _403  and  _405
REMARK  167  A    between atoms: _405  and  _406
REMARK  168  A    between atoms: _405  and  _408
REMARK  169  A    between atoms: _408  and  _409
REMARK  170  A    between atoms: _412  and  _414
REMARK  171  A    between atoms: _414  and  _415
REMARK  172  A    between atoms: _414  and  _417
REMARK  173  A    between atoms: _417  and  _418
REMARK  174  A    between atoms: _418  and  _419
REMARK  175  A    between atoms: _424  and  _426
REMARK  176  A    between atoms: _426  and  _427
REMARK  177  A    between atoms: _426  and  _429
REMARK  178  A    between atoms: _429  and  _430
REMARK  179  A    between atoms: _430  and  _431
REMARK  180  A    between atoms: _433  and  _435
REMARK  181  A    between atoms: _435  and  _436
REMARK  182  A    between atoms: _435  and  _438
REMARK  183  A    between atoms: _438  and  _439
REMARK  184  A    between atoms: _443  and  _444
REMARK  185  A    between atoms: _449  and  _451
REMARK  186  A    between atoms: _451  and  _452
REMARK  187  A    between atoms: _451  and  _454
REMARK  188  A    between atoms: _454  and  _455
REMARK  189  A    between atoms: _458  and  _460
REMARK  190  A    between atoms: _460  and  _461
REMARK  191  A    between atoms: _460  and  _463
REMARK  192  A    between atoms: _463  and  _464
REMARK  193  A    between atoms: _470  and  _472
REMARK  194  A    between atoms: _472  and  _473
REMARK  195  A    between atoms: _472  and  _475
REMARK  196  A    between atoms: _475  and  _476
REMARK  197  A    between atoms: _476  and  _477
REMARK  198  A    between atoms: _480  and  _482
REMARK  199  A    between atoms: _482  and  _483
REMARK  200  A    between atoms: _486  and  _488
REMARK  201  A    between atoms: _488  and  _489
REMARK  202  A    between atoms: _488  and  _491
REMARK  203  A    between atoms: _491  and  _492
REMARK  204  A    between atoms: _495  and  _497
REMARK  205  A    between atoms: _497  and  _498
REMARK  206  A    between atoms: _497  and  _500
REMARK  207  A    between atoms: _500  and  _501
REMARK  208  A    between atoms: _504  and  _506
REMARK  209  A    between atoms: _506  and  _507
REMARK  210  A    between atoms: _506  and  _509
REMARK  211  A    between atoms: _509  and  _510
REMARK  212  A    between atoms: _510  and  _511
REMARK  213  A    between atoms: _511  and  _512
REMARK  214  A    between atoms: _512  and  _513
REMARK  215  A    between atoms: _517  and  _519
REMARK  216  A    between atoms: _519  and  _520
REMARK  217  A    between atoms: _523  and  _525
REMARK  218  A    between atoms: _525  and  _526
REMARK  219  A    between atoms: _525  and  _528
REMARK  220  A    between atoms: _528  and  _529
REMARK  221  A    between atoms: _529  and  _530
REMARK  222  A    between atoms: _533  and  _535
REMARK  223  A    between atoms: _535  and  _536
REMARK  224  A    between atoms: _535  and  _538
REMARK  225  A    between atoms: _538  and  _539
REMARK  226  A    between atoms: _542  and  _544
REMARK  227  A    between atoms: _544  and  _545
REMARK  228  A    between atoms: _544  and  _547
REMARK  229  A    between atoms: _547  and  _548
REMARK  230  A    between atoms: _551  and  _553
REMARK  231  A    between atoms: _553  and  _554
REMARK  232  A    between atoms: _553  and  _556
REMARK  233  A    between atoms: _556  and  _557
REMARK  234  A    between atoms: _563  and  _565
REMARK  235  A    between atoms: _565  and  _566
REMARK  236  A    between atoms: _569  and  _571
REMARK  237  A    between atoms: _571  and  _572
REMARK  238  A    between atoms: _571  and  _574
REMARK  239  A    between atoms: _574  and  _575
REMARK  240  A    between atoms: _578  and  _580
REMARK  241  A    between atoms: _580  and  _581
REMARK  242  A    between atoms: _580  and  _583
REMARK  243  A    between atoms: _583  and  _584
REMARK  244  A    between atoms: _589  and  _591
REMARK  245  A    between atoms: _591  and  _592
REMARK  246  A    between atoms: _591  and  _594
REMARK  247  A    between atoms: _594  and  _595
REMARK                            x       y       z     vdW  Elec       q    Type
REMARK                         _______ _______ _______ _____ _____    ______ ____
ROOT
ATOM      1  CA  VAL A   1      25.930 -26.229  16.606  0.00  0.00    +0.133 C 
ENDROOT
BRANCH   1   2
ATOM      2  CB  VAL A   1      26.708 -25.388  15.540  0.00  0.00    +0.023 C 
ATOM      3  CG2 VAL A   1      28.220 -25.497  15.737  0.00  0.00    +0.002 C 
ATOM      4  CG1 VAL A   1      26.269 -23.918  15.541  0.00  0.00    +0.002 C 
ENDBRANCH   1   2
BRANCH   1   5
ATOM      5  N   VAL A   1      26.158 -27.669  16.456  0.00  0.00    -0.239 NA
ATOM      6  H   VAL A   1      26.250 -28.059  15.496  0.00  0.00    +0.142 HD
ENDBRANCH   1   5
BRANCH   1   7
ATOM      7  C   VAL A   1      24.413 -25.992  16.561  0.00  0.00    +0.224 C 
ATOM      8  O   VAL A   1      23.732 -26.551  15.684  0.00  0.00    -0.287 OA
ENDBRANCH   1   7
TORSDOF 3
REMARK  Name = ../refined-set-2016/4q9o/4q9o_pocket.pdb
REMARK  247 active torsions:
REMARK  status: ('A' for Active; 'I' for Inactive)
REMARK    1  A    between atoms: _1  and  _3
REMARK    2  A    between atoms: _3  and  _4
REMARK    3  A    between atoms: _3  and  _6
REMARK    4  A    between atoms: _6  and  _7
REMARK    5  A    between atoms: _7  and  _8
REMARK    6  A    between atoms: _10  and  _12
REMARK    7  A    between atoms: _12  and  _13
REMARK    8  A    between atoms: _12  and  _15
REMARK    9  A    between atoms: _15  and  _16
REMARK   10  A    between atoms: _21  and  _23
REMARK   11  A    between atoms: _23  and  _24
REMARK   12  A    between atoms: _23  and  _26
REMARK   13  A    between atoms: _26  and  _27
REMARK   14  A    between atoms: _32  and  _34
REMARK   15  A    between atoms: _34  and  _35
REMARK   16  A    between atoms: _34  and  _37
REMARK   17  A    between atoms: _37  and  _38
REMARK   18  A    between atoms: _38  and  _39
REMARK   19  A    between atoms: _39  and  _40
REMARK   20  A    between atoms: _40  and  _41
REMARK   21  A    between atoms: _45  and  _47
REMARK   22  A    between atoms: _47  and  _48
REMARK   23  A    between atoms: _50  and  _52
REMARK   24  A    between atoms: _52  and  _53
REMARK   25  A    between atoms: _52  and  _55
REMARK   26  A    between atoms: _55  and  _56
REMARK   27  A    between atoms: _56  and  _57
REMARK   28  A    between atoms: _59  and  _61
REMARK   29  A    between atoms: _61  and  _62
REMARK   30  A    between atoms: _61  and  _64
REMARK   31  A    between atoms: _64  and  _65
REMARK   32  A    between atoms: _65  and  _66
REMARK   33  A    between atoms: _69  and  _71
REMARK   34  A    between atoms: _71  and  _72
REMARK   35  A    between atoms: _75  and  _77
REMARK   36  A    between atoms: _77  and  _78
REMARK   37  A    between atoms: _77  and  _80
REMARK   38  A    between atoms: _80  and  _81
REMARK   39  A    between atoms: _84  and  _86
REMARK   40  A    between atoms: _86  and  _87
REMARK   41  A    between atoms: _86  and  _89
REMARK   42  A    between atoms: _89  and  _90
REMARK   43  A    between atoms: _90  and  _91
REMARK   44  A    between atoms: _96  and  _98
REMARK   45  A    between atoms: _98  and  _99
REMARK   46  A    between atoms: _98  and  _101
REMARK   47  A    between atoms: _101  and  _102
REMARK   48  A    between atoms: _105  and  _107
REMARK   49  A    between atoms: _107  and  _108
REMARK   50  A    between atoms: _107  and  _110
REMARK   51  A    between atoms: _113  and  _115
REMARK   52  A    between atoms: _115  and  _116
REMARK   53  A    between atoms: _115  and  _118
REMARK   54  A    between atoms: _118  and  _119
REMARK   55  A    between atoms: _122  and  _124
REMARK   56  A    between atoms: _124  and  _125
REMARK   57  A    between atoms: _124  and  _127
REMARK   58  A    between atoms: _127  and  _128
REMARK   59  A    between atoms: _128  and  _129
REMARK   60  A    between atoms: _129  and  _130
REMARK   61  A    between atoms: _130  and  _131
REMARK   62  A    between atoms: _135  and  _137
REMARK   63  A    between atoms: _137  and  _138
REMARK   64  A    between atoms: _137  and  _140
REMARK   65  A    between atoms: _143  and  _145
REMARK   66  A    between atoms: _145  and  _146
REMARK   67  A    between atoms: _145  and  _148
REMARK   68  A    between atoms: _148  and  _149
REMARK   69  A    between atoms: _154  and  _155
REMARK   70  A    between atoms: _157  and  _159
REMARK   71  A    between atoms: _159  and  _160
REMARK   72  A    between atoms: _163  and  _165
REMARK   73  A    between atoms: _165  and  _166
REMARK   74  A    between atoms: _165  and  _168
REMARK   75  A    between atoms: _168  and  _169
REMARK   76  A    between atoms: _175  and  _177
REMARK   77  A    between atoms: _177  and  _178
REMARK   78  A    between atoms: _177  and  _180
REMARK   79  A    between atoms: _180  and  _181
REMARK   80  A    between atoms: _183  and  _185
REMARK   81  A    between atoms: _185  and  _186
REMARK   82  A    between atoms: _185  and  _188
REMARK   83  A    between atoms: _188  and  _189
REMARK   84  A    between atoms: _194  and  _196
REMARK   85  A    between atoms: _196  and  _197
REMARK   86  A    between atoms: _196  and  _199
REMARK   87  A    between atoms: _202  and  _204
REMARK   88  A    between atoms: _204  and  _205
REMARK   89  A    between atoms: _204  and  _207
REMARK   90  A    between atoms: _207  and  _208
REMARK   91  A    between atoms: _208  and  _209
REMARK   92  A    between atoms: _209  and  _210
REMARK   93  A    between atoms: _210  and  _211
REMARK   94  A    between atoms: _215  and  _217
REMARK   95  A    between atoms: _217  and  _218
REMARK   96  A    between atoms: _217  and  _220
REMARK   97  A    between atoms: _220  and  _221
REMARK   98  A    between atoms: _227  and  _229
REMARK   99  A    between atoms: _229  and  _230
REMARK  100  A    between atoms: _229  and  _232
REMARK  101  A    between atoms: _232  and  _233
REMARK  102  A    between atoms: _236  and  _238
REMARK  103  A    between atoms: _238  and  _239
REMARK  104  A    between atoms: _238  and  _241
REMARK  105  A    between atoms: _241  and  _242
REMARK  106  A    between atoms: _242  and  _243
REMARK  107  A    between atoms: _245  and  _247
REMARK  108  A    between atoms: _247  and  _248
REMARK  109  A    between atoms: _247  and  _250
REMARK  110  A    between atoms: _250  and  _251
REMARK  111  A    between atoms: _256  and  _258
REMARK  112  A    between atoms: _258  and  _259
REMARK  113  A    between atoms: _258  and  _261
REMARK  114  A    between atoms: _261  and  _262
REMARK  115  A    between atoms: _266  and  _267
REMARK  116  A    between atoms: _272  and  _274
REMARK  117  A    between atoms: _274  and  _275
REMARK  118  A    between atoms: _274  and  _277
REMARK  119  A    between atoms: _280  and  _282
REMARK  120  A    between atoms: _282  and  _283
REMARK  121  A    between atoms: _282  and  _285
REMARK  122  A    between atoms: _285  and  _286
REMARK  123  A    between atoms: _286  and  _287
REMARK  124  A    between atoms: _290  and  _292
REMARK  125  A    between atoms: _292  and  _293
REMARK  126  A    between atoms: _292  and  _295
REMARK  127  A    between atoms: _295  and  _296
REMARK  128  A    between atoms: _302  and  _304
REMARK  129  A    between atoms: _304  and  _305
REMARK  130  A    between atoms: _304  and  _307
REMARK  131  A    between atoms: _307  and  _308
REMARK  132  A    between atoms: _313  and  _314
REMARK  133  A    between atoms: _316  and  _318
REMARK  134  A    between atoms: _318  and  _319
REMARK  135  A    between atoms: _318  and  _321
REMARK  136  A    between atoms: _321  and  _322
REMARK  137  A    between atoms: _325  and  _327
REMARK  138  A    between atoms: _327  and  _328
REMARK  139  A    between atoms: _327  and  _330
REMARK  140  A    between atoms: _330  and  _331
REMARK  141  A    between atoms: _336  and  _338
REMARK  142  A    between atoms: _338  and  _339
REMARK  143  A    between atoms: _338  and  _341
REMARK  144  A    between atoms: _341  and  _342
REMARK  145  A    between atoms: _347  and  _348
REMARK  146  A    between atoms: _350  and  _352
REMARK  147  A    between atoms: _352  and  _353
REMARK  148  A    between atoms: _352  and  _355
REMARK  149  A    between atoms: _359  and  _360
REMARK  150  A    between atoms: _365  and  _367
REMARK  151  A    between atoms: _367  and  _368
REMARK  152  A    between atoms: _367  and  _370
REMARK  153  A    between atoms: _370  and  _371
REMARK  154  A    between atoms: _371  and  _372
REMARK  155  A    between atoms: _375  and  _377
REMARK  156  A    between atoms: _377  and  _378
REMARK  157  A    between atoms: _377  and  _380
REMARK  158  A    between atoms: _380  and  _381
REMARK  159  A    between atoms: _384  and  _386
REMARK  160  A    between atoms: _386  and  _387
REMARK  161  A    between atoms: _386  and  _389
REMARK  162  A    between atoms: _389  and  _390
REMARK  163  A    between atoms: _395  and  _397
REMARK  164  A    between atoms: _397  and  _398
REMARK  165  A    between atoms: _397  and  _400
REMARK  166  A    between atoms: _403  and  _405
REMARK  167  A    between atoms: _405  and  _406
REMARK  168  A    between atoms: _405  and  _408
REMARK  169  A    between atoms: _408  and  _409
REMARK  170  A    between atoms: _412  and  _414
REMARK  171  A    between atoms: _414  and  _415
REMARK  172  A    between atoms: _414  and  _417
REMARK  173  A    between atoms: _417  and  _418
REMARK  174  A    between atoms: _418  and  _419
REMARK  175  A    between atoms: _424  and  _426
REMARK  176  A    between atoms: _426  and  _427
REMARK  177  A    between atoms: _426  and  _429
REMARK  178  A    between atoms: _429  and  _430
REMARK  179  A    between atoms: _430  and  _431
REMARK  180  A    between atoms: _433  and  _435
REMARK  181  A    between atoms: _435  and  _436
REMARK  182  A    between atoms: _435  and  _438
REMARK  183  A    between atoms: _438  and  _439
REMARK  184  A    between atoms: _443  and  _444
REMARK  185  A    between atoms: _449  and  _451
REMARK  186  A    between atoms: _451  and  _452
REMARK  187  A    between atoms: _451  and  _454
REMARK  188  A    between atoms: _454  and  _455
REMARK  189  A    between atoms: _458  and  _460
REMARK  190  A    between atoms: _460  and  _461
REMARK  191  A    between atoms: _460  and  _463
REMARK  192  A    between atoms: _463  and  _464
REMARK  193  A    between atoms: _470  and  _472
REMARK  194  A    between atoms: _472  and  _473
REMARK  195  A    between atoms: _472  and  _475
REMARK  196  A    between atoms: _475  and  _476
REMARK  197  A    between atoms: _476  and  _477
REMARK  198  A    between atoms: _480  and  _482
REMARK  199  A    between atoms: _482  and  _483
REMARK  200  A    between atoms: _486  and  _488
REMARK  201  A    between atoms: _488  and  _489
REMARK  202  A    between atoms: _488  and  _491
REMARK  203  A    between atoms: _491  and  _492
REMARK  204  A    between atoms: _495  and  _497
REMARK  205  A    between atoms: _497  and  _498
REMARK  206  A    between atoms: _497  and  _500
REMARK  207  A    between atoms: _500  and  _501
REMARK  208  A    between atoms: _504  and  _506
REMARK  209  A    between atoms: _506  and  _507
REMARK  210  A    between atoms: _506  and  _509
REMARK  211  A    between atoms: _509  and  _510
REMARK  212  A    between atoms: _510  and  _511
REMARK  213  A    between atoms: _511  and  _512
REMARK  214  A    between atoms: _512  and  _513
REMARK  215  A    between atoms: _517  and  _519
REMARK  216  A    between atoms: _519  and  _520
REMARK  217  A    between atoms: _523  and  _525
REMARK  218  A    between atoms: _525  and  _526
REMARK  219  A    between atoms: _525  and  _528
REMARK  220  A    between atoms: _528  and  _529
REMARK  221  A    between atoms: _529  and  _530
REMARK  222  A    between atoms: _533  and  _535
REMARK  223  A    between atoms: _535  and  _536
REMARK  224  A    between atoms: _535  and  _538
REMARK  225  A    between atoms: _538  and  _539
REMARK  226  A    between atoms: _542  and  _544
REMARK  227  A    between atoms: _544  and  _545
REMARK  228  A    between atoms: _544  and  _547
REMARK  229  A    between atoms: _547  and  _548
REMARK  230  A    between atoms: _551  and  _553
REMARK  231  A    between atoms: _553  and  _554
REMARK  232  A    between atoms: _553  and  _556
REMARK  233  A    between atoms: _556  and  _557
REMARK  234  A    between atoms: _563  and  _565
REMARK  235  A    between atoms: _565  and  _566
REMARK  236  A    between atoms: _569  and  _571
REMARK  237  A    between atoms: _571  and  _572
REMARK  238  A    between atoms: _571  and  _574
REMARK  239  A    between atoms: _574  and  _575
REMARK  240  A    between atoms: _578  and  _580
REMARK  241  A    between atoms: _580  and  _581
REMARK  242  A    between atoms: _580  and  _583
REMARK  243  A    between atoms: _583  and  _584
REMARK  244  A    between atoms: _589  and  _591
REMARK  245  A    between atoms: _591  and  _592
REMARK  246  A    between atoms: _591  and  _594
REMARK  247  A    between atoms: _594  and  _595
REMARK                            x       y       z     vdW  Elec       q    Type
REMARK                         _______ _______ _______ _____ _____    ______ ____
ROOT
ATOM      1  CA  GLN A   2      18.751 -19.455  16.456  0.00  0.00    +0.149 C 
ENDROOT
BRANCH   1   3
ATOM      2  C   ILE A   1      19.776 -21.550  15.628  0.00  0.00    +0.238 C 
ATOM      3  N   GLN A   2      19.868 -20.255  15.956  0.00  0.00    -0.297 N 
ATOM      4  H   GLN A   2      20.792 -19.789  15.848  0.00  0.00    +0.150 HD
ATOM      5  O   ILE A   1      18.750 -22.197  15.778  0.00  0.00    -0.274 OA
BRANCH   2   6
ATOM      6  CA  ILE A   1      21.054 -22.215  15.085  0.00  0.00    +0.145 C 
BRANCH   6   7
ATOM      7  N   ILE A   1      21.343 -23.462  15.804  0.00  0.00    -0.238 NA
ATOM      8  H   ILE A   1      20.853 -24.334  15.518  0.00  0.00    +0.142 HD
ENDBRANCH   6   7
BRANCH   6   9
ATOM      9  CB  ILE A   1      21.031 -22.419  13.537  0.00  0.00    +0.025 C 
ATOM     10  CG2 ILE A   1      20.521 -21.170  12.778  0.00  0.00    +0.002 C 
BRANCH   9  11
ATOM     11  CG1 ILE A   1      22.407 -22.865  13.005  0.00  0.00    +0.002 C 
ATOM     12  CD1 ILE A   1      22.346 -23.612  11.651  0.00  0.00    +0.000 C 
ENDBRANCH   9  11
ENDBRANCH   6   9
ENDBRANCH   2   6
ENDBRANCH   1   3
BRANCH   1  13
ATOM     13  C   GLN A   2      18.816 -18.100  15.805  0.00  0.00    +0.241 C 
ATOM     14  N   MET A   3      17.747 -17.315  15.937  0.00  0.00    -0.298 N 
ATOM     15  H   MET A   3      16.907 -17.690  16.423  0.00  0.00    +0.150 HD
ATOM     16  O   GLN A   2      19.816 -17.779  15.165  0.00  0.00    -0.273 OA
BRANCH  14  17
ATOM     17  CA  MET A   3      17.711 -15.950  15.426  0.00  0.00    +0.138 C 
BRANCH  17  18
ATOM     18  C   MET A   3      16.987 -15.014  16.384  0.00  0.00    +0.227 C 
ATOM     19  O   MET A   3      16.124 -15.444  17.147  0.00  0.00    -0.286 OA
ENDBRANCH  17  18
BRANCH  17  20
ATOM     20  CB  MET A   3      17.130 -15.865  13.996  0.00  0.00    +0.039 C 
BRANCH  20  21
ATOM     21  CG  MET A   3      15.653 -16.109  13.917  0.00  0.00    +0.060 C 
BRANCH  21  22
ATOM     22  SD  MET A   3      15.068 -16.080  12.224  0.00  0.00    -0.139 S 
ATOM     23  CE  MET A   3      13.482 -16.903  12.430  0.00  0.00    +0.069 C 
ENDBRANCH  21  22
ENDBRANCH  20  21
ENDBRANCH  17  20
ENDBRANCH  14  17
ENDBRANCH   1  13
BRANCH   1  24
ATOM     24  CB  GLN A   2      18.781 -19.330  18.000  0.00  0.00    +0.039 C 
BRANCH  24  25
ATOM     25  CG  GLN A   2      18.666 -20.687  18.720  0.00  0.00    +0.087 C 
BRANCH  25  26
ATOM     26  CD  GLN A   2      18.202 -20.645  20.152  0.00  0.00    +0.219 C 
ATOM     27  NE2 GLN A   2      18.667 -19.692  20.928  0.00  0.00    -0.329 N 
ATOM     28 HE21 GLN A   2      18.396 -19.660  21.932  0.00  0.00    +0.145 HD
ATOM     29 HE22 GLN A   2      19.306 -18.970  20.539  0.00  0.00    +0.145 HD
ATOM     30  OE1 GLN A   2      17.446 -21.508  20.592  0.00  0.00    -0.275 OA
ENDBRANCH  25  26
ENDBRANCH  24  25
ENDBRANCH   1  24
TORSDOF 14
REMARK  Name = ../refined-set-2016/4q9o/4q9o_pocket.pdb
REMARK  247 active torsions:
REMARK  status: ('A' for Active; 'I' for Inactive)
REMARK    1  A    between atoms: _1  and  _3
REMARK    2  A    between atoms: _3  and  _4
REMARK    3  A    between atoms: _3  and  _6
REMARK    4  A    between atoms: _6  and  _7
REMARK    5  A    between atoms: _7  and  _8
REMARK    6  A    between atoms: _10  and  _12
REMARK    7  A    between atoms: _12  and  _13
REMARK    8  A    between atoms: _12  and  _15
REMARK    9  A    between atoms: _15  and  _16
REMARK   10  A    between atoms: _21  and  _23
REMARK   11  A    between atoms: _23  and  _24
REMARK   12  A    between atoms: _23  and  _26
REMARK   13  A    between atoms: _26  and  _27
REMARK   14  A    between atoms: _32  and  _34
REMARK   15  A    between atoms: _34  and  _35
REMARK   16  A    between atoms: _34  and  _37
REMARK   17  A    between atoms: _37  and  _38
REMARK   18  A    between atoms: _38  and  _39
REMARK   19  A    between atoms: _39  and  _40
REMARK   20  A    between atoms: _40  and  _41
REMARK   21  A    between atoms: _45  and  _47
REMARK   22  A    between atoms: _47  and  _48
REMARK   23  A    between atoms: _50  and  _52
REMARK   24  A    between atoms: _52  and  _53
REMARK   25  A    between atoms: _52  and  _55
REMARK   26  A    between atoms: _55  and  _56
REMARK   27  A    between atoms: _56  and  _57
REMARK   28  A    between atoms: _59  and  _61
REMARK   29  A    between atoms: _61  and  _62
REMARK   30  A    between atoms: _61  and  _64
REMARK   31  A    between atoms: _64  and  _65
REMARK   32  A    between atoms: _65  and  _66
REMARK   33  A    between atoms: _69  and  _71
REMARK   34  A    between atoms: _71  and  _72
REMARK   35  A    between atoms: _75  and  _77
REMARK   36  A    between atoms: _77  and  _78
REMARK   37  A    between atoms: _77  and  _80
REMARK   38  A    between atoms: _80  and  _81
REMARK   39  A    between atoms: _84  and  _86
REMARK   40  A    between atoms: _86  and  _87
REMARK   41  A    between atoms: _86  and  _89
REMARK   42  A    between atoms: _89  and  _90
REMARK   43  A    between atoms: _90  and  _91
REMARK   44  A    between atoms: _96  and  _98
REMARK   45  A    between atoms: _98  and  _99
REMARK   46  A    between atoms: _98  and  _101
REMARK   47  A    between atoms: _101  and  _102
REMARK   48  A    between atoms: _105  and  _107
REMARK   49  A    between atoms: _107  and  _108
REMARK   50  A    between atoms: _107  and  _110
REMARK   51  A    between atoms: _113  and  _115
REMARK   52  A    between atoms: _115  and  _116
REMARK   53  A    between atoms: _115  and  _118
REMARK   54  A    between atoms: _118  and  _119
REMARK   55  A    between atoms: _122  and  _124
REMARK   56  A    between atoms: _124  and  _125
REMARK   57  A    between atoms: _124  and  _127
REMARK   58  A    between atoms: _127  and  _128
REMARK   59  A    between atoms: _128  and  _129
REMARK   60  A    between atoms: _129  and  _130
REMARK   61  A    between atoms: _130  and  _131
REMARK   62  A    between atoms: _135  and  _137
REMARK   63  A    between atoms: _137  and  _138
REMARK   64  A    between atoms: _137  and  _140
REMARK   65  A    between atoms: _143  and  _145
REMARK   66  A    between atoms: _145  and  _146
REMARK   67  A    between atoms: _145  and  _148
REMARK   68  A    between atoms: _148  and  _149
REMARK   69  A    between atoms: _154  and  _155
REMARK   70  A    between atoms: _157  and  _159
REMARK   71  A    between atoms: _159  and  _160
REMARK   72  A    between atoms: _163  and  _165
REMARK   73  A    between atoms: _165  and  _166
REMARK   74  A    between atoms: _165  and  _168
REMARK   75  A    between atoms: _168  and  _169
REMARK   76  A    between atoms: _175  and  _177
REMARK   77  A    between atoms: _177  and  _178
REMARK   78  A    between atoms: _177  and  _180
REMARK   79  A    between atoms: _180  and  _181
REMARK   80  A    between atoms: _183  and  _185
REMARK   81  A    between atoms: _185  and  _186
REMARK   82  A    between atoms: _185  and  _188
REMARK   83  A    between atoms: _188  and  _189
REMARK   84  A    between atoms: _194  and  _196
REMARK   85  A    between atoms: _196  and  _197
REMARK   86  A    between atoms: _196  and  _199
REMARK   87  A    between atoms: _202  and  _204
REMARK   88  A    between atoms: _204  and  _205
REMARK   89  A    between atoms: _204  and  _207
REMARK   90  A    between atoms: _207  and  _208
REMARK   91  A    between atoms: _208  and  _209
REMARK   92  A    between atoms: _209  and  _210
REMARK   93  A    between atoms: _210  and  _211
REMARK   94  A    between atoms: _215  and  _217
REMARK   95  A    between atoms: _217  and  _218
REMARK   96  A    between atoms: _217  and  _220
REMARK   97  A    between atoms: _220  and  _221
REMARK   98  A    between atoms: _227  and  _229
REMARK   99  A    between atoms: _229  and  _230
REMARK  100  A    between atoms: _229  and  _232
REMARK  101  A    between atoms: _232  and  _233
REMARK  102  A    between atoms: _236  and  _238
REMARK  103  A    between atoms: _238  and  _239
REMARK  104  A    between atoms: _238  and  _241
REMARK  105  A    between atoms: _241  and  _242
REMARK  106  A    between atoms: _242  and  _243
REMARK  107  A    between atoms: _245  and  _247
REMARK  108  A    between atoms: _247  and  _248
REMARK  109  A    between atoms: _247  and  _250
REMARK  110  A    between atoms: _250  and  _251
REMARK  111  A    between atoms: _256  and  _258
REMARK  112  A    between atoms: _258  and  _259
REMARK  113  A    between atoms: _258  and  _261
REMARK  114  A    between atoms: _261  and  _262
REMARK  115  A    between atoms: _266  and  _267
REMARK  116  A    between atoms: _272  and  _274
REMARK  117  A    between atoms: _274  and  _275
REMARK  118  A    between atoms: _274  and  _277
REMARK  119  A    between atoms: _280  and  _282
REMARK  120  A    between atoms: _282  and  _283
REMARK  121  A    between atoms: _282  and  _285
REMARK  122  A    between atoms: _285  and  _286
REMARK  123  A    between atoms: _286  and  _287
REMARK  124  A    between atoms: _290  and  _292
REMARK  125  A    between atoms: _292  and  _293
REMARK  126  A    between atoms: _292  and  _295
REMARK  127  A    between atoms: _295  and  _296
REMARK  128  A    between atoms: _302  and  _304
REMARK  129  A    between atoms: _304  and  _305
REMARK  130  A    between atoms: _304  and  _307
REMARK  131  A    between atoms: _307  and  _308
REMARK  132  A    between atoms: _313  and  _314
REMARK  133  A    between atoms: _316  and  _318
REMARK  134  A    between atoms: _318  and  _319
REMARK  135  A    between atoms: _318  and  _321
REMARK  136  A    between atoms: _321  and  _322
REMARK  137  A    between atoms: _325  and  _327
REMARK  138  A    between atoms: _327  and  _328
REMARK  139  A    between atoms: _327  and  _330
REMARK  140  A    between atoms: _330  and  _331
REMARK  141  A    between atoms: _336  and  _338
REMARK  142  A    between atoms: _338  and  _339
REMARK  143  A    between atoms: _338  and  _341
REMARK  144  A    between atoms: _341  and  _342
REMARK  145  A    between atoms: _347  and  _348
REMARK  146  A    between atoms: _350  and  _352
REMARK  147  A    between atoms: _352  and  _353
REMARK  148  A    between atoms: _352  and  _355
REMARK  149  A    between atoms: _359  and  _360
REMARK  150  A    between atoms: _365  and  _367
REMARK  151  A    between atoms: _367  and  _368
REMARK  152  A    between atoms: _367  and  _370
REMARK  153  A    between atoms: _370  and  _371
REMARK  154  A    between atoms: _371  and  _372
REMARK  155  A    between atoms: _375  and  _377
REMARK  156  A    between atoms: _377  and  _378
REMARK  157  A    between atoms: _377  and  _380
REMARK  158  A    between atoms: _380  and  _381
REMARK  159  A    between atoms: _384  and  _386
REMARK  160  A    between atoms: _386  and  _387
REMARK  161  A    between atoms: _386  and  _389
REMARK  162  A    between atoms: _389  and  _390
REMARK  163  A    between atoms: _395  and  _397
REMARK  164  A    between atoms: _397  and  _398
REMARK  165  A    between atoms: _397  and  _400
REMARK  166  A    between atoms: _403  and  _405
REMARK  167  A    between atoms: _405  and  _406
REMARK  168  A    between atoms: _405  and  _408
REMARK  169  A    between atoms: _408  and  _409
REMARK  170  A    between atoms: _412  and  _414
REMARK  171  A    between atoms: _414  and  _415
REMARK  172  A    between atoms: _414  and  _417
REMARK  173  A    between atoms: _417  and  _418
REMARK  174  A    between atoms: _418  and  _419
REMARK  175  A    between atoms: _424  and  _426
REMARK  176  A    between atoms: _426  and  _427
REMARK  177  A    between atoms: _426  and  _429
REMARK  178  A    between atoms: _429  and  _430
REMARK  179  A    between atoms: _430  and  _431
REMARK  180  A    between atoms: _433  and  _435
REMARK  181  A    between atoms: _435  and  _436
REMARK  182  A    between atoms: _435  and  _438
REMARK  183  A    between atoms: _438  and  _439
REMARK  184  A    between atoms: _443  and  _444
REMARK  185  A    between atoms: _449  and  _451
REMARK  186  A    between atoms: _451  and  _452
REMARK  187  A    between atoms: _451  and  _454
REMARK  188  A    between atoms: _454  and  _455
REMARK  189  A    between atoms: _458  and  _460
REMARK  190  A    between atoms: _460  and  _461
REMARK  191  A    between atoms: _460  and  _463
REMARK  192  A    between atoms: _463  and  _464
REMARK  193  A    between atoms: _470  and  _472
REMARK  194  A    between atoms: _472  and  _473
REMARK  195  A    between atoms: _472  and  _475
REMARK  196  A    between atoms: _475  and  _476
REMARK  197  A    between atoms: _476  and  _477
REMARK  198  A    between atoms: _480  and  _482
REMARK  199  A    between atoms: _482  and  _483
REMARK  200  A    between atoms: _486  and  _488
REMARK  201  A    between atoms: _488  and  _489
REMARK  202  A    between atoms: _488  and  _491
REMARK  203  A    between atoms: _491  and  _492
REMARK  204  A    between atoms: _495  and  _497
REMARK  205  A    between atoms: _497  and  _498
REMARK  206  A    between atoms: _497  and  _500
REMARK  207  A    between atoms: _500  and  _501
REMARK  208  A    between atoms: _504  and  _506
REMARK  209  A    between atoms: _506  and  _507
REMARK  210  A    between atoms: _506  and  _509
REMARK  211  A    between atoms: _509  and  _510
REMARK  212  A    between atoms: _510  and  _511
REMARK  213  A    between atoms: _511  and  _512
REMARK  214  A    between atoms: _512  and  _513
REMARK  215  A    between atoms: _517  and  _519
REMARK  216  A    between atoms: _519  and  _520
REMARK  217  A    between atoms: _523  and  _525
REMARK  218  A    between atoms: _525  and  _526
REMARK  219  A    between atoms: _525  and  _528
REMARK  220  A    between atoms: _528  and  _529
REMARK  221  A    between atoms: _529  and  _530
REMARK  222  A    between atoms: _533  and  _535
REMARK  223  A    between atoms: _535  and  _536
REMARK  224  A    between atoms: _535  and  _538
REMARK  225  A    between atoms: _538  and  _539
REMARK  226  A    between atoms: _542  and  _544
REMARK  227  A    between atoms: _544  and  _545
REMARK  228  A    between atoms: _544  and  _547
REMARK  229  A    between atoms: _547  and  _548
REMARK  230  A    between atoms: _551  and  _553
REMARK  231  A    between atoms: _553  and  _554
REMARK  232  A    between atoms: _553  and  _556
REMARK  233  A    between atoms: _556  and  _557
REMARK  234  A    between atoms: _563  and  _565
REMARK  235  A    between atoms: _565  and  _566
REMARK  236  A    between atoms: _569  and  _571
REMARK  237  A    between atoms: _571  and  _572
REMARK  238  A    between atoms: _571  and  _574
REMARK  239  A    between atoms: _574  and  _575
REMARK  240  A    between atoms: _578  and  _580
REMARK  241  A    between atoms: _580  and  _581
REMARK  242  A    between atoms: _580  and  _583
REMARK  243  A    between atoms: _583  and  _584
REMARK  244  A    between atoms: _589  and  _591
REMARK  245  A    between atoms: _591  and  _592
REMARK  246  A    between atoms: _591  and  _594
REMARK  247  A    between atoms: _594  and  _595
REMARK                            x       y       z     vdW  Elec       q    Type
REMARK                         _______ _______ _______ _____ _____    ______ ____
ROOT
ATOM      1  C   LEU A   1      11.013 -11.652   5.394  0.00  0.00    +0.241 C 
ATOM      2  O   LEU A   1       9.882 -12.103   5.612  0.00  0.00    -0.273 OA
ATOM      3  N   PRO A   2      11.571 -11.710   4.156  0.00  0.00    -0.273 N 
ATOM      4  CD  PRO A   2      12.895 -11.228   3.706  0.00  0.00    +0.094 C 
ATOM      5  CG  PRO A   2      12.742 -11.164   2.222  0.00  0.00    +0.024 C 
ATOM      6  CB  PRO A   2      11.807 -12.258   1.868  0.00  0.00    +0.030 C 
ATOM      7  CA  PRO A   2      10.833 -12.350   3.050  0.00  0.00    +0.140 C 
ENDROOT
BRANCH   7   8
ATOM      8  C   PRO A   2      10.506 -13.811   3.394  0.00  0.00    +0.227 C 
ATOM      9  O   PRO A   2      11.311 -14.475   4.049  0.00  0.00    -0.286 OA
ENDBRANCH   7   8
BRANCH   1  10
ATOM     10  CA  LEU A   1      11.821 -11.059   6.568  0.00  0.00    +0.145 C 
BRANCH  10  11
ATOM     11  N   LEU A   1      10.909 -10.469   7.547  0.00  0.00    -0.238 NA
ATOM     12  H   LEU A   1      10.718 -10.993   8.425  0.00  0.00    +0.142 HD
ENDBRANCH  10  11
BRANCH  10  13
ATOM     13  CB  LEU A   1      12.664 -12.192   7.219  0.00  0.00    +0.026 C 
BRANCH  13  14
ATOM     14  CG  LEU A   1      13.680 -11.811   8.312  0.00  0.00    +0.002 C 
ATOM     15  CD2 LEU A   1      14.189 -13.048   9.020  0.00  0.00    +0.000 C 
ATOM     16  CD1 LEU A   1      14.860 -11.025   7.749  0.00  0.00    +0.000 C 
ENDBRANCH  13  14
ENDBRANCH  10  13
ENDBRANCH   1  10
TORSDOF 5
REMARK  Name = ../refined-set-2016/4q9o/4q9o_pocket.pdb
REMARK  247 active torsions:
REMARK  status: ('A' for Active; 'I' for Inactive)
REMARK    1  A    between atoms: _1  and  _3
REMARK    2  A    between atoms: _3  and  _4
REMARK    3  A    between atoms: _3  and  _6
REMARK    4  A    between atoms: _6  and  _7
REMARK    5  A    between atoms: _7  and  _8
REMARK    6  A    between atoms: _10  and  _12
REMARK    7  A    between atoms: _12  and  _13
REMARK    8  A    between atoms: _12  and  _15
REMARK    9  A    between atoms: _15  and  _16
REMARK   10  A    between atoms: _21  and  _23
REMARK   11  A    between atoms: _23  and  _24
REMARK   12  A    between atoms: _23  and  _26
REMARK   13  A    between atoms: _26  and  _27
REMARK   14  A    between atoms: _32  and  _34
REMARK   15  A    between atoms: _34  and  _35
REMARK   16  A    between atoms: _34  and  _37
REMARK   17  A    between atoms: _37  and  _38
REMARK   18  A    between atoms: _38  and  _39
REMARK   19  A    between atoms: _39  and  _40
REMARK   20  A    between atoms: _40  and  _41
REMARK   21  A    between atoms: _45  and  _47
REMARK   22  A    between atoms: _47  and  _48
REMARK   23  A    between atoms: _50  and  _52
REMARK   24  A    between atoms: _52  and  _53
REMARK   25  A    between atoms: _52  and  _55
REMARK   26  A    between atoms: _55  and  _56
REMARK   27  A    between atoms: _56  and  _57
REMARK   28  A    between atoms: _59  and  _61
REMARK   29  A    between atoms: _61  and  _62
REMARK   30  A    between atoms: _61  and  _64
REMARK   31  A    between atoms: _64  and  _65
REMARK   32  A    between atoms: _65  and  _66
REMARK   33  A    between atoms: _69  and  _71
REMARK   34  A    between atoms: _71  and  _72
REMARK   35  A    between atoms: _75  and  _77
REMARK   36  A    between atoms: _77  and  _78
REMARK   37  A    between atoms: _77  and  _80
REMARK   38  A    between atoms: _80  and  _81
REMARK   39  A    between atoms: _84  and  _86
REMARK   40  A    between atoms: _86  and  _87
REMARK   41  A    between atoms: _86  and  _89
REMARK   42  A    between atoms: _89  and  _90
REMARK   43  A    between atoms: _90  and  _91
REMARK   44  A    between atoms: _96  and  _98
REMARK   45  A    between atoms: _98  and  _99
REMARK   46  A    between atoms: _98  and  _101
REMARK   47  A    between atoms: _101  and  _102
REMARK   48  A    between atoms: _105  and  _107
REMARK   49  A    between atoms: _107  and  _108
REMARK   50  A    between atoms: _107  and  _110
REMARK   51  A    between atoms: _113  and  _115
REMARK   52  A    between atoms: _115  and  _116
REMARK   53  A    between atoms: _115  and  _118
REMARK   54  A    between atoms: _118  and  _119
REMARK   55  A    between atoms: _122  and  _124
REMARK   56  A    between atoms: _124  and  _125
REMARK   57  A    between atoms: _124  and  _127
REMARK   58  A    between atoms: _127  and  _128
REMARK   59  A    between atoms: _128  and  _129
REMARK   60  A    between atoms: _129  and  _130
REMARK   61  A    between atoms: _130  and  _131
REMARK   62  A    between atoms: _135  and  _137
REMARK   63  A    between atoms: _137  and  _138
REMARK   64  A    between atoms: _137  and  _140
REMARK   65  A    between atoms: _143  and  _145
REMARK   66  A    between atoms: _145  and  _146
REMARK   67  A    between atoms: _145  and  _148
REMARK   68  A    between atoms: _148  and  _149
REMARK   69  A    between atoms: _154  and  _155
REMARK   70  A    between atoms: _157  and  _159
REMARK   71  A    between atoms: _159  and  _160
REMARK   72  A    between atoms: _163  and  _165
REMARK   73  A    between atoms: _165  and  _166
REMARK   74  A    between atoms: _165  and  _168
REMARK   75  A    between atoms: _168  and  _169
REMARK   76  A    between atoms: _175  and  _177
REMARK   77  A    between atoms: _177  and  _178
REMARK   78  A    between atoms: _177  and  _180
REMARK   79  A    between atoms: _180  and  _181
REMARK   80  A    between atoms: _183  and  _185
REMARK   81  A    between atoms: _185  and  _186
REMARK   82  A    between atoms: _185  and  _188
REMARK   83  A    between atoms: _188  and  _189
REMARK   84  A    between atoms: _194  and  _196
REMARK   85  A    between atoms: _196  and  _197
REMARK   86  A    between atoms: _196  and  _199
REMARK   87  A    between atoms: _202  and  _204
REMARK   88  A    between atoms: _204  and  _205
REMARK   89  A    between atoms: _204  and  _207
REMARK   90  A    between atoms: _207  and  _208
REMARK   91  A    between atoms: _208  and  _209
REMARK   92  A    between atoms: _209  and  _210
REMARK   93  A    between atoms: _210  and  _211
REMARK   94  A    between atoms: _215  and  _217
REMARK   95  A    between atoms: _217  and  _218
REMARK   96  A    between atoms: _217  and  _220
REMARK   97  A    between atoms: _220  and  _221
REMARK   98  A    between atoms: _227  and  _229
REMARK   99  A    between atoms: _229  and  _230
REMARK  100  A    between atoms: _229  and  _232
REMARK  101  A    between atoms: _232  and  _233
REMARK  102  A    between atoms: _236  and  _238
REMARK  103  A    between atoms: _238  and  _239
REMARK  104  A    between atoms: _238  and  _241
REMARK  105  A    between atoms: _241  and  _242
REMARK  106  A    between atoms: _242  and  _243
REMARK  107  A    between atoms: _245  and  _247
REMARK  108  A    between atoms: _247  and  _248
REMARK  109  A    between atoms: _247  and  _250
REMARK  110  A    between atoms: _250  and  _251
REMARK  111  A    between atoms: _256  and  _258
REMARK  112  A    between atoms: _258  and  _259
REMARK  113  A    between atoms: _258  and  _261
REMARK  114  A    between atoms: _261  and  _262
REMARK  115  A    between atoms: _266  and  _267
REMARK  116  A    between atoms: _272  and  _274
REMARK  117  A    between atoms: _274  and  _275
REMARK  118  A    between atoms: _274  and  _277
REMARK  119  A    between atoms: _280  and  _282
REMARK  120  A    between atoms: _282  and  _283
REMARK  121  A    between atoms: _282  and  _285
REMARK  122  A    between atoms: _285  and  _286
REMARK  123  A    between atoms: _286  and  _287
REMARK  124  A    between atoms: _290  and  _292
REMARK  125  A    between atoms: _292  and  _293
REMARK  126  A    between atoms: _292  and  _295
REMARK  127  A    between atoms: _295  and  _296
REMARK  128  A    between atoms: _302  and  _304
REMARK  129  A    between atoms: _304  and  _305
REMARK  130  A    between atoms: _304  and  _307
REMARK  131  A    between atoms: _307  and  _308
REMARK  132  A    between atoms: _313  and  _314
REMARK  133  A    between atoms: _316  and  _318
REMARK  134  A    between atoms: _318  and  _319
REMARK  135  A    between atoms: _318  and  _321
REMARK  136  A    between atoms: _321  and  _322
REMARK  137  A    between atoms: _325  and  _327
REMARK  138  A    between atoms: _327  and  _328
REMARK  139  A    between atoms: _327  and  _330
REMARK  140  A    between atoms: _330  and  _331
REMARK  141  A    between atoms: _336  and  _338
REMARK  142  A    between atoms: _338  and  _339
REMARK  143  A    between atoms: _338  and  _341
REMARK  144  A    between atoms: _341  and  _342
REMARK  145  A    between atoms: _347  and  _348
REMARK  146  A    between atoms: _350  and  _352
REMARK  147  A    between atoms: _352  and  _353
REMARK  148  A    between atoms: _352  and  _355
REMARK  149  A    between atoms: _359  and  _360
REMARK  150  A    between atoms: _365  and  _367
REMARK  151  A    between atoms: _367  and  _368
REMARK  152  A    between atoms: _367  and  _370
REMARK  153  A    between atoms: _370  and  _371
REMARK  154  A    between atoms: _371  and  _372
REMARK  155  A    between atoms: _375  and  _377
REMARK  156  A    between atoms: _377  and  _378
REMARK  157  A    between atoms: _377  and  _380
REMARK  158  A    between atoms: _380  and  _381
REMARK  159  A    between atoms: _384  and  _386
REMARK  160  A    between atoms: _386  and  _387
REMARK  161  A    between atoms: _386  and  _389
REMARK  162  A    between atoms: _389  and  _390
REMARK  163  A    between atoms: _395  and  _397
REMARK  164  A    between atoms: _397  and  _398
REMARK  165  A    between atoms: _397  and  _400
REMARK  166  A    between atoms: _403  and  _405
REMARK  167  A    between atoms: _405  and  _406
REMARK  168  A    between atoms: _405  and  _408
REMARK  169  A    between atoms: _408  and  _409
REMARK  170  A    between atoms: _412  and  _414
REMARK  171  A    between atoms: _414  and  _415
REMARK  172  A    between atoms: _414  and  _417
REMARK  173  A    between atoms: _417  and  _418
REMARK  174  A    between atoms: _418  and  _419
REMARK  175  A    between atoms: _424  and  _426
REMARK  176  A    between atoms: _426  and  _427
REMARK  177  A    between atoms: _426  and  _429
REMARK  178  A    between atoms: _429  and  _430
REMARK  179  A    between atoms: _430  and  _431
REMARK  180  A    between atoms: _433  and  _435
REMARK  181  A    between atoms: _435  and  _436
REMARK  182  A    between atoms: _435  and  _438
REMARK  183  A    between atoms: _438  and  _439
REMARK  184  A    between atoms: _443  and  _444
REMARK  185  A    between atoms: _449  and  _451
REMARK  186  A    between atoms: _451  and  _452
REMARK  187  A    between atoms: _451  and  _454
REMARK  188  A    between atoms: _454  and  _455
REMARK  189  A    between atoms: _458  and  _460
REMARK  190  A    between atoms: _460  and  _461
REMARK  191  A    between atoms: _460  and  _463
REMARK  192  A    between atoms: _463  and  _464
REMARK  193  A    between atoms: _470  and  _472
REMARK  194  A    between atoms: _472  and  _473
REMARK  195  A    between atoms: _472  and  _475
REMARK  196  A    between atoms: _475  and  _476
REMARK  197  A    between atoms: _476  and  _477
REMARK  198  A    between atoms: _480  and  _482
REMARK  199  A    between atoms: _482  and  _483
REMARK  200  A    between atoms: _486  and  _488
REMARK  201  A    between atoms: _488  and  _489
REMARK  202  A    between atoms: _488  and  _491
REMARK  203  A    between atoms: _491  and  _492
REMARK  204  A    between atoms: _495  and  _497
REMARK  205  A    between atoms: _497  and  _498
REMARK  206  A    between atoms: _497  and  _500
REMARK  207  A    between atoms: _500  and  _501
REMARK  208  A    between atoms: _504  and  _506
REMARK  209  A    between atoms: _506  and  _507
REMARK  210  A    between atoms: _506  and  _509
REMARK  211  A    between atoms: _509  and  _510
REMARK  212  A    between atoms: _510  and  _511
REMARK  213  A    between atoms: _511  and  _512
REMARK  214  A    between atoms: _512  and  _513
REMARK  215  A    between atoms: _517  and  _519
REMARK  216  A    between atoms: _519  and  _520
REMARK  217  A    between atoms: _523  and  _525
REMARK  218  A    between atoms: _525  and  _526
REMARK  219  A    between atoms: _525  and  _528
REMARK  220  A    between atoms: _528  and  _529
REMARK  221  A    between atoms: _529  and  _530
REMARK  222  A    between atoms: _533  and  _535
REMARK  223  A    between atoms: _535  and  _536
REMARK  224  A    between atoms: _535  and  _538
REMARK  225  A    between atoms: _538  and  _539
REMARK  226  A    between atoms: _542  and  _544
REMARK  227  A    between atoms: _544  and  _545
REMARK  228  A    between atoms: _544  and  _547
REMARK  229  A    between atoms: _547  and  _548
REMARK  230  A    between atoms: _551  and  _553
REMARK  231  A    between atoms: _553  and  _554
REMARK  232  A    between atoms: _553  and  _556
REMARK  233  A    between atoms: _556  and  _557
REMARK  234  A    between atoms: _563  and  _565
REMARK  235  A    between atoms: _565  and  _566
REMARK  236  A    between atoms: _569  and  _571
REMARK  237  A    between atoms: _571  and  _572
REMARK  238  A    between atoms: _571  and  _574
REMARK  239  A    between atoms: _574  and  _575
REMARK  240  A    between atoms: _578  and  _580
REMARK  241  A    between atoms: _580  and  _581
REMARK  242  A    between atoms: _580  and  _583
REMARK  243  A    between atoms: _583  and  _584
REMARK  244  A    between atoms: _589  and  _591
REMARK  245  A    between atoms: _591  and  _592
REMARK  246  A    between atoms: _591  and  _594
REMARK  247  A    between atoms: _594  and  _595
REMARK                            x       y       z     vdW  Elec       q    Type
REMARK                         _______ _______ _______ _____ _____    ______ ____
ROOT
ATOM      1  CA  LEU A   5      16.088 -19.857   8.960  0.00  0.00    +0.149 C 
ENDROOT
BRANCH   1   2
ATOM      2  C   LEU A   5      15.334 -20.777   9.923  0.00  0.00    +0.241 C 
ATOM      3  O   LEU A   5      15.975 -21.391  10.777  0.00  0.00    -0.273 OA
ATOM      4  N   THR A   6      13.983 -20.868   9.785  0.00  0.00    -0.295 N 
ATOM      5  H   THR A   6      13.533 -20.275   9.059  0.00  0.00    +0.150 HD
BRANCH   4   6
ATOM      6  CA  THR A   6      13.108 -21.744  10.587  0.00  0.00    +0.176 C 
BRANCH   6   7
ATOM      7  C   THR A   6      13.487 -23.215  10.388  0.00  0.00    +0.243 C 
ATOM      8  O   THR A   6      13.578 -23.949  11.369  0.00  0.00    -0.273 OA
ATOM      9  N   LYS A   7      13.749 -23.628   9.133  0.00  0.00    -0.297 N 
ATOM     10  H   LYS A   7      13.643 -22.942   8.358  0.00  0.00    +0.150 HD
BRANCH   9  11
ATOM     11  CA  LYS A   7      14.176 -24.993   8.798  0.00  0.00    +0.149 C 
BRANCH  11  12
ATOM     12  C   LYS A   7      15.493 -25.331   9.541  0.00  0.00    +0.241 C 
ATOM     13  O   LYS A   7      15.593 -26.417  10.126  0.00  0.00    -0.273 OA
ATOM     14  N   ALA A   8      16.463 -24.368   9.557  0.00  0.00    -0.297 N 
ATOM     15  H   ALA A   8      16.267 -23.476   9.060  0.00  0.00    +0.150 HD
BRANCH  14  16
ATOM     16  CA  ALA A   8      17.763 -24.504  10.227  0.00  0.00    +0.149 C 
ATOM     17  CB  ALA A   8      18.682 -23.356   9.836  0.00  0.00    +0.031 C 
BRANCH  16  18
ATOM     18  C   ALA A   8      17.619 -24.565  11.755  0.00  0.00    +0.241 C 
ATOM     19  O   ALA A   8      18.356 -25.318  12.393  0.00  0.00    -0.273 OA
ATOM     20  N   GLU A   9      16.662 -23.781  12.329  0.00  0.00    -0.298 N 
ATOM     21  H   GLU A   9      16.116 -23.149  11.709  0.00  0.00    +0.150 HD
BRANCH  20  22
ATOM     22  CA  GLU A   9      16.352 -23.770  13.764  0.00  0.00    +0.137 C 
BRANCH  22  23
ATOM     23  C   GLU A   9      15.834 -25.146  14.154  0.00  0.00    +0.227 C 
ATOM     24  O   GLU A   9      16.322 -25.729  15.113  0.00  0.00    -0.286 OA
ENDBRANCH  22  23
BRANCH  22  25
ATOM     25  CB  GLU A   9      15.231 -22.767  14.104  0.00  0.00    +0.039 C 
BRANCH  25  26
ATOM     26  CG  GLU A   9      15.555 -21.293  13.993  0.00  0.00    +0.116 C 
BRANCH  26  27
ATOM     27  CD  GLU A   9      14.405 -20.384  14.398  0.00  0.00    +0.365 C 
ATOM     28  OE2 GLU A   9      14.676 -19.233  14.801  0.00  0.00    -0.246 OA
ATOM     29  OE1 GLU A   9      13.234 -20.812  14.308  0.00  0.00    -0.246 OA
ENDBRANCH  26  27
ENDBRANCH  25  26
ENDBRANCH  22  25
ENDBRANCH  20  22
ENDBRANCH  16  18
ENDBRANCH  14  16
ENDBRANCH  11  12
BRANCH  11  30
ATOM     30  CB  LYS A   7      14.345 -25.139   7.275  0.00  0.00    +0.029 C 
BRANCH  30  31
ATOM     31  CG  LYS A   7      14.506 -26.569   6.778  0.00  0.00    +0.000 C 
BRANCH  31  32
ATOM     32  CD  LYS A   7      14.623 -26.607   5.253  0.00  0.00    -0.024 C 
BRANCH  32  33
ATOM     33  CE  LYS A   7      14.757 -28.015   4.681  0.00  0.00    -0.086 C 
BRANCH  33  34
ATOM     34  NZ  LYS A   7      13.567 -28.881   4.938  0.00  0.00    +0.380 N 
ATOM     35  HZ1 LYS A   7      13.423 -28.974   5.964  0.00  0.00    -0.089 HD
ATOM     36  HZ2 LYS A   7      13.727 -29.821   4.522  0.00  0.00    -0.089 HD
ATOM     37  HZ3 LYS A   7      12.725 -28.449   4.506  0.00  0.00    -0.089 HD
ENDBRANCH  33  34
ENDBRANCH  32  33
ENDBRANCH  31  32
ENDBRANCH  30  31
ENDBRANCH  11  30
ENDBRANCH   9  11
ENDBRANCH   6   7
BRANCH   6  38
ATOM     38  CB  THR A   6      11.629 -21.464  10.294  0.00  0.00    +0.137 C 
ATOM     39  CG2 THR A   6      10.693 -22.322  11.116  0.00  0.00    +0.034 C 
BRANCH  38  40
ATOM     40  OG1 THR A   6      11.362 -20.099  10.579  0.00  0.00    -0.382 OA
ATOM     41  HG1 THR A   6      11.934 -19.526  10.009  0.00  0.00    +0.210 HD
ENDBRANCH  38  40
ENDBRANCH   6  38
ENDBRANCH   4   6
ENDBRANCH   1   2
BRANCH   1  43
ATOM     42  C   ALA A   4      15.781 -21.126   6.856  0.00  0.00    +0.241 C 
ATOM     43  N   LEU A   5      15.591 -20.004   7.590  0.00  0.00    -0.297 N 
ATOM     44  H   LEU A   5      15.070 -19.212   7.162  0.00  0.00    +0.150 HD
ATOM     45  O   ALA A   4      16.360 -22.123   7.287  0.00  0.00    -0.273 OA
BRANCH  42  46
ATOM     46  CA  ALA A   4      15.184 -21.167   5.449  0.00  0.00    +0.149 C 
ATOM     47  CB  ALA A   4      16.079 -20.432   4.471  0.00  0.00    +0.031 C 
BRANCH  46  50
ATOM     48  C   GLU A   3      12.791 -21.152   6.092  0.00  0.00    +0.241 C 
ATOM     49  O   GLU A   3      12.886 -22.175   6.780  0.00  0.00    -0.273 OA
ATOM     50  N   ALA A   4      13.833 -20.602   5.430  0.00  0.00    -0.297 N 
ATOM     51  H   ALA A   4      13.667 -19.735   4.880  0.00  0.00    +0.150 HD
BRANCH  48  52
ATOM     52  CA  GLU A   3      11.437 -20.441   5.987  0.00  0.00    +0.149 C 
BRANCH  52  55
ATOM     53  C   PHE A   2      12.066 -18.400   7.249  0.00  0.00    +0.241 C 
ATOM     54  O   PHE A   2      12.431 -19.022   8.248  0.00  0.00    -0.273 OA
ATOM     55  N   GLU A   3      11.596 -18.994   6.146  0.00  0.00    -0.297 N 
ATOM     56  H   GLU A   3      11.325 -18.386   5.347  0.00  0.00    +0.150 HD
BRANCH  53  57
ATOM     57  CA  PHE A   2      12.192 -16.867   7.216  0.00  0.00    +0.153 C 
BRANCH  57  60
ATOM     58  C   THR A   1      13.934 -16.822   5.434  0.00  0.00    +0.241 C 
ATOM     59  O   THR A   1      14.688 -17.621   5.983  0.00  0.00    -0.274 OA
ATOM     60  N   PHE A   2      12.748 -16.431   5.940  0.00  0.00    -0.297 N 
ATOM     61  H   PHE A   2      12.184 -15.765   5.375  0.00  0.00    +0.150 HD
BRANCH  58  62
ATOM     62  CA  THR A   1      14.308 -16.257   4.079  0.00  0.00    +0.172 C 
BRANCH  62  63
ATOM     63  N   THR A   1      13.215 -16.496   3.129  0.00  0.00    -0.236 NA
ATOM     64  H   THR A   1      12.729 -15.665   2.734  0.00  0.00    +0.142 HD
ENDBRANCH  62  63
BRANCH  62  65
ATOM     65  CB  THR A   1      14.659 -14.762   4.122  0.00  0.00    +0.135 C 
ATOM     66  CG2 THR A   1      15.818 -14.444   5.083  0.00  0.00    +0.034 C 
BRANCH  65  67
ATOM     67  OG1 THR A   1      14.982 -14.348   2.801  0.00  0.00    -0.383 OA
ATOM     68  HG1 THR A   1      15.755 -14.872   2.472  0.00  0.00    +0.210 HD
ENDBRANCH  65  67
ENDBRANCH  62  65
ENDBRANCH  58  62
ENDBRANCH  57  60
BRANCH  57  69
ATOM     69  CB  PHE A   2      10.835 -16.181   7.461  0.00  0.00    +0.055 C 
BRANCH  69  70
ATOM     70  CG  PHE A   2      10.172 -16.547   8.768  0.00  0.00    -0.020 A 
ATOM     71  CD2 PHE A   2      10.464 -15.847   9.933  0.00  0.00    -0.004 A 
ATOM     72  CE2 PHE A   2       9.869 -16.201  11.147  0.00  0.00    -0.000 A 
ATOM     73  CZ  PHE A   2       8.974 -17.255  11.194  0.00  0.00    -0.000 A 
ATOM     74  CE1 PHE A   2       8.675 -17.964  10.049  0.00  0.00    -0.000 A 
ATOM     75  CD1 PHE A   2       9.261 -17.603   8.835  0.00  0.00    -0.004 A 
ENDBRANCH  69  70
ENDBRANCH  57  69
ENDBRANCH  53  57
ENDBRANCH  52  55
BRANCH  52  76
ATOM     76  CB  GLU A   3      10.773 -20.750   4.648  0.00  0.00    +0.041 C 
BRANCH  76  77
ATOM     77  CG  GLU A   3       9.390 -21.361   4.769  0.00  0.00    +0.116 C 
BRANCH  77  78
ATOM     78  CD  GLU A   3       8.637 -21.388   3.449  0.00  0.00    +0.365 C 
ATOM     79  OE2 GLU A   3       8.231 -20.311   2.960  0.00  0.00    -0.246 OA
ATOM     80  OE1 GLU A   3       8.496 -22.494   2.877  0.00  0.00    -0.246 OA
ENDBRANCH  77  78
ENDBRANCH  76  77
ENDBRANCH  52  76
ENDBRANCH  48  52
ENDBRANCH  46  50
ENDBRANCH  42  46
ENDBRANCH   1  43
BRANCH   1  81
ATOM     81  CB  LEU A   5      16.020 -18.387   9.437  0.00  0.00    +0.029 C 
BRANCH  81  82
ATOM     82  CG  LEU A   5      17.258 -17.458   9.275  0.00  0.00    +0.002 C 
ATOM     83  CD2 LEU A   5      18.308 -17.662  10.387  0.00  0.00    +0.000 C 
ATOM     84  CD1 LEU A   5      17.828 -17.461   7.876  0.00  0.00    +0.000 C 
ENDBRANCH  81  82
ENDBRANCH   1  81
TORSDOF 37
REMARK  Name = ../refined-set-2016/4q9o/4q9o_pocket.pdb
REMARK  247 active torsions:
REMARK  status: ('A' for Active; 'I' for Inactive)
REMARK    1  A    between atoms: _1  and  _3
REMARK    2  A    between atoms: _3  and  _4
REMARK    3  A    between atoms: _3  and  _6
REMARK    4  A    between atoms: _6  and  _7
REMARK    5  A    between atoms: _7  and  _8
REMARK    6  A    between atoms: _10  and  _12
REMARK    7  A    between atoms: _12  and  _13
REMARK    8  A    between atoms: _12  and  _15
REMARK    9  A    between atoms: _15  and  _16
REMARK   10  A    between atoms: _21  and  _23
REMARK   11  A    between atoms: _23  and  _24
REMARK   12  A    between atoms: _23  and  _26
REMARK   13  A    between atoms: _26  and  _27
REMARK   14  A    between atoms: _32  and  _34
REMARK   15  A    between atoms: _34  and  _35
REMARK   16  A    between atoms: _34  and  _37
REMARK   17  A    between atoms: _37  and  _38
REMARK   18  A    between atoms: _38  and  _39
REMARK   19  A    between atoms: _39  and  _40
REMARK   20  A    between atoms: _40  and  _41
REMARK   21  A    between atoms: _45  and  _47
REMARK   22  A    between atoms: _47  and  _48
REMARK   23  A    between atoms: _50  and  _52
REMARK   24  A    between atoms: _52  and  _53
REMARK   25  A    between atoms: _52  and  _55
REMARK   26  A    between atoms: _55  and  _56
REMARK   27  A    between atoms: _56  and  _57
REMARK   28  A    between atoms: _59  and  _61
REMARK   29  A    between atoms: _61  and  _62
REMARK   30  A    between atoms: _61  and  _64
REMARK   31  A    between atoms: _64  and  _65
REMARK   32  A    between atoms: _65  and  _66
REMARK   33  A    between atoms: _69  and  _71
REMARK   34  A    between atoms: _71  and  _72
REMARK   35  A    between atoms: _75  and  _77
REMARK   36  A    between atoms: _77  and  _78
REMARK   37  A    between atoms: _77  and  _80
REMARK   38  A    between atoms: _80  and  _81
REMARK   39  A    between atoms: _84  and  _86
REMARK   40  A    between atoms: _86  and  _87
REMARK   41  A    between atoms: _86  and  _89
REMARK   42  A    between atoms: _89  and  _90
REMARK   43  A    between atoms: _90  and  _91
REMARK   44  A    between atoms: _96  and  _98
REMARK   45  A    between atoms: _98  and  _99
REMARK   46  A    between atoms: _98  and  _101
REMARK   47  A    between atoms: _101  and  _102
REMARK   48  A    between atoms: _105  and  _107
REMARK   49  A    between atoms: _107  and  _108
REMARK   50  A    between atoms: _107  and  _110
REMARK   51  A    between atoms: _113  and  _115
REMARK   52  A    between atoms: _115  and  _116
REMARK   53  A    between atoms: _115  and  _118
REMARK   54  A    between atoms: _118  and  _119
REMARK   55  A    between atoms: _122  and  _124
REMARK   56  A    between atoms: _124  and  _125
REMARK   57  A    between atoms: _124  and  _127
REMARK   58  A    between atoms: _127  and  _128
REMARK   59  A    between atoms: _128  and  _129
REMARK   60  A    between atoms: _129  and  _130
REMARK   61  A    between atoms: _130  and  _131
REMARK   62  A    between atoms: _135  and  _137
REMARK   63  A    between atoms: _137  and  _138
REMARK   64  A    between atoms: _137  and  _140
REMARK   65  A    between atoms: _143  and  _145
REMARK   66  A    between atoms: _145  and  _146
REMARK   67  A    between atoms: _145  and  _148
REMARK   68  A    between atoms: _148  and  _149
REMARK   69  A    between atoms: _154  and  _155
REMARK   70  A    between atoms: _157  and  _159
REMARK   71  A    between atoms: _159  and  _160
REMARK   72  A    between atoms: _163  and  _165
REMARK   73  A    between atoms: _165  and  _166
REMARK   74  A    between atoms: _165  and  _168
REMARK   75  A    between atoms: _168  and  _169
REMARK   76  A    between atoms: _175  and  _177
REMARK   77  A    between atoms: _177  and  _178
REMARK   78  A    between atoms: _177  and  _180
REMARK   79  A    between atoms: _180  and  _181
REMARK   80  A    between atoms: _183  and  _185
REMARK   81  A    between atoms: _185  and  _186
REMARK   82  A    between atoms: _185  and  _188
REMARK   83  A    between atoms: _188  and  _189
REMARK   84  A    between atoms: _194  and  _196
REMARK   85  A    between atoms: _196  and  _197
REMARK   86  A    between atoms: _196  and  _199
REMARK   87  A    between atoms: _202  and  _204
REMARK   88  A    between atoms: _204  and  _205
REMARK   89  A    between atoms: _204  and  _207
REMARK   90  A    between atoms: _207  and  _208
REMARK   91  A    between atoms: _208  and  _209
REMARK   92  A    between atoms: _209  and  _210
REMARK   93  A    between atoms: _210  and  _211
REMARK   94  A    between atoms: _215  and  _217
REMARK   95  A    between atoms: _217  and  _218
REMARK   96  A    between atoms: _217  and  _220
REMARK   97  A    between atoms: _220  and  _221
REMARK   98  A    between atoms: _227  and  _229
REMARK   99  A    between atoms: _229  and  _230
REMARK  100  A    between atoms: _229  and  _232
REMARK  101  A    between atoms: _232  and  _233
REMARK  102  A    between atoms: _236  and  _238
REMARK  103  A    between atoms: _238  and  _239
REMARK  104  A    between atoms: _238  and  _241
REMARK  105  A    between atoms: _241  and  _242
REMARK  106  A    between atoms: _242  and  _243
REMARK  107  A    between atoms: _245  and  _247
REMARK  108  A    between atoms: _247  and  _248
REMARK  109  A    between atoms: _247  and  _250
REMARK  110  A    between atoms: _250  and  _251
REMARK  111  A    between atoms: _256  and  _258
REMARK  112  A    between atoms: _258  and  _259
REMARK  113  A    between atoms: _258  and  _261
REMARK  114  A    between atoms: _261  and  _262
REMARK  115  A    between atoms: _266  and  _267
REMARK  116  A    between atoms: _272  and  _274
REMARK  117  A    between atoms: _274  and  _275
REMARK  118  A    between atoms: _274  and  _277
REMARK  119  A    between atoms: _280  and  _282
REMARK  120  A    between atoms: _282  and  _283
REMARK  121  A    between atoms: _282  and  _285
REMARK  122  A    between atoms: _285  and  _286
REMARK  123  A    between atoms: _286  and  _287
REMARK  124  A    between atoms: _290  and  _292
REMARK  125  A    between atoms: _292  and  _293
REMARK  126  A    between atoms: _292  and  _295
REMARK  127  A    between atoms: _295  and  _296
REMARK  128  A    between atoms: _302  and  _304
REMARK  129  A    between atoms: _304  and  _305
REMARK  130  A    between atoms: _304  and  _307
REMARK  131  A    between atoms: _307  and  _308
REMARK  132  A    between atoms: _313  and  _314
REMARK  133  A    between atoms: _316  and  _318
REMARK  134  A    between atoms: _318  and  _319
REMARK  135  A    between atoms: _318  and  _321
REMARK  136  A    between atoms: _321  and  _322
REMARK  137  A    between atoms: _325  and  _327
REMARK  138  A    between atoms: _327  and  _328
REMARK  139  A    between atoms: _327  and  _330
REMARK  140  A    between atoms: _330  and  _331
REMARK  141  A    between atoms: _336  and  _338
REMARK  142  A    between atoms: _338  and  _339
REMARK  143  A    between atoms: _338  and  _341
REMARK  144  A    between atoms: _341  and  _342
REMARK  145  A    between atoms: _347  and  _348
REMARK  146  A    between atoms: _350  and  _352
REMARK  147  A    between atoms: _352  and  _353
REMARK  148  A    between atoms: _352  and  _355
REMARK  149  A    between atoms: _359  and  _360
REMARK  150  A    between atoms: _365  and  _367
REMARK  151  A    between atoms: _367  and  _368
REMARK  152  A    between atoms: _367  and  _370
REMARK  153  A    between atoms: _370  and  _371
REMARK  154  A    between atoms: _371  and  _372
REMARK  155  A    between atoms: _375  and  _377
REMARK  156  A    between atoms: _377  and  _378
REMARK  157  A    between atoms: _377  and  _380
REMARK  158  A    between atoms: _380  and  _381
REMARK  159  A    between atoms: _384  and  _386
REMARK  160  A    between atoms: _386  and  _387
REMARK  161  A    between atoms: _386  and  _389
REMARK  162  A    between atoms: _389  and  _390
REMARK  163  A    between atoms: _395  and  _397
REMARK  164  A    between atoms: _397  and  _398
REMARK  165  A    between atoms: _397  and  _400
REMARK  166  A    between atoms: _403  and  _405
REMARK  167  A    between atoms: _405  and  _406
REMARK  168  A    between atoms: _405  and  _408
REMARK  169  A    between atoms: _408  and  _409
REMARK  170  A    between atoms: _412  and  _414
REMARK  171  A    between atoms: _414  and  _415
REMARK  172  A    between atoms: _414  and  _417
REMARK  173  A    between atoms: _417  and  _418
REMARK  174  A    between atoms: _418  and  _419
REMARK  175  A    between atoms: _424  and  _426
REMARK  176  A    between atoms: _426  and  _427
REMARK  177  A    between atoms: _426  and  _429
REMARK  178  A    between atoms: _429  and  _430
REMARK  179  A    between atoms: _430  and  _431
REMARK  180  A    between atoms: _433  and  _435
REMARK  181  A    between atoms: _435  and  _436
REMARK  182  A    between atoms: _435  and  _438
REMARK  183  A    between atoms: _438  and  _439
REMARK  184  A    between atoms: _443  and  _444
REMARK  185  A    between atoms: _449  and  _451
REMARK  186  A    between atoms: _451  and  _452
REMARK  187  A    between atoms: _451  and  _454
REMARK  188  A    between atoms: _454  and  _455
REMARK  189  A    between atoms: _458  and  _460
REMARK  190  A    between atoms: _460  and  _461
REMARK  191  A    between atoms: _460  and  _463
REMARK  192  A    between atoms: _463  and  _464
REMARK  193  A    between atoms: _470  and  _472
REMARK  194  A    between atoms: _472  and  _473
REMARK  195  A    between atoms: _472  and  _475
REMARK  196  A    between atoms: _475  and  _476
REMARK  197  A    between atoms: _476  and  _477
REMARK  198  A    between atoms: _480  and  _482
REMARK  199  A    between atoms: _482  and  _483
REMARK  200  A    between atoms: _486  and  _488
REMARK  201  A    between atoms: _488  and  _489
REMARK  202  A    between atoms: _488  and  _491
REMARK  203  A    between atoms: _491  and  _492
REMARK  204  A    between atoms: _495  and  _497
REMARK  205  A    between atoms: _497  and  _498
REMARK  206  A    between atoms: _497  and  _500
REMARK  207  A    between atoms: _500  and  _501
REMARK  208  A    between atoms: _504  and  _506
REMARK  209  A    between atoms: _506  and  _507
REMARK  210  A    between atoms: _506  and  _509
REMARK  211  A    between atoms: _509  and  _510
REMARK  212  A    between atoms: _510  and  _511
REMARK  213  A    between atoms: _511  and  _512
REMARK  214  A    between atoms: _512  and  _513
REMARK  215  A    between atoms: _517  and  _519
REMARK  216  A    between atoms: _519  and  _520
REMARK  217  A    between atoms: _523  and  _525
REMARK  218  A    between atoms: _525  and  _526
REMARK  219  A    between atoms: _525  and  _528
REMARK  220  A    between atoms: _528  and  _529
REMARK  221  A    between atoms: _529  and  _530
REMARK  222  A    between atoms: _533  and  _535
REMARK  223  A    between atoms: _535  and  _536
REMARK  224  A    between atoms: _535  and  _538
REMARK  225  A    between atoms: _538  and  _539
REMARK  226  A    between atoms: _542  and  _544
REMARK  227  A    between atoms: _544  and  _545
REMARK  228  A    between atoms: _544  and  _547
REMARK  229  A    between atoms: _547  and  _548
REMARK  230  A    between atoms: _551  and  _553
REMARK  231  A    between atoms: _553  and  _554
REMARK  232  A    between atoms: _553  and  _556
REMARK  233  A    between atoms: _556  and  _557
REMARK  234  A    between atoms: _563  and  _565
REMARK  235  A    between atoms: _565  and  _566
REMARK  236  A    between atoms: _569  and  _571
REMARK  237  A    between atoms: _571  and  _572
REMARK  238  A    between atoms: _571  and  _574
REMARK  239  A    between atoms: _574  and  _575
REMARK  240  A    between atoms: _578  and  _580
REMARK  241  A    between atoms: _580  and  _581
REMARK  242  A    between atoms: _580  and  _583
REMARK  243  A    between atoms: _583  and  _584
REMARK  244  A    between atoms: _589  and  _591
REMARK  245  A    between atoms: _591  and  _592
REMARK  246  A    between atoms: _591  and  _594
REMARK  247  A    between atoms: _594  and  _595
REMARK                            x       y       z     vdW  Elec       q    Type
REMARK                         _______ _______ _______ _____ _____    ______ ____
ROOT
ATOM      1  CA  THR A   1      19.504 -27.993  15.151  0.00  0.00    +0.160 C 
ENDROOT
BRANCH   1   2
ATOM      2  N   THR A   1      18.481 -28.076  14.110  0.00  0.00    -0.237 NA
ATOM      3  H   THR A   1      18.123 -27.184  13.713  0.00  0.00    +0.142 HD
ENDBRANCH   1   2
BRANCH   1   4
ATOM      4  C   THR A   1      18.977 -27.743  16.569  0.00  0.00    +0.227 C 
ATOM      5  O   THR A   1      19.791 -27.577  17.465  0.00  0.00    -0.287 OA
ENDBRANCH   1   4
BRANCH   1   6
ATOM      6  CB  THR A   1      20.522 -26.906  14.741  0.00  0.00    +0.134 C 
ATOM      7  CG2 THR A   1      21.174 -27.177  13.382  0.00  0.00    +0.034 C 
BRANCH   6   8
ATOM      8  OG1 THR A   1      19.865 -25.643  14.709  0.00  0.00    -0.383 OA
ATOM      9  HG1 THR A   1      19.126 -25.674  14.051  0.00  0.00    +0.210 HD
ENDBRANCH   6   8
ENDBRANCH   1   6
TORSDOF 4
REMARK  Name = ../refined-set-2016/4q9o/4q9o_pocket.pdb
REMARK  247 active torsions:
REMARK  status: ('A' for Active; 'I' for Inactive)
REMARK    1  A    between atoms: _1  and  _3
REMARK    2  A    between atoms: _3  and  _4
REMARK    3  A    between atoms: _3  and  _6
REMARK    4  A    between atoms: _6  and  _7
REMARK    5  A    between atoms: _7  and  _8
REMARK    6  A    between atoms: _10  and  _12
REMARK    7  A    between atoms: _12  and  _13
REMARK    8  A    between atoms: _12  and  _15
REMARK    9  A    between atoms: _15  and  _16
REMARK   10  A    between atoms: _21  and  _23
REMARK   11  A    between atoms: _23  and  _24
REMARK   12  A    between atoms: _23  and  _26
REMARK   13  A    between atoms: _26  and  _27
REMARK   14  A    between atoms: _32  and  _34
REMARK   15  A    between atoms: _34  and  _35
REMARK   16  A    between atoms: _34  and  _37
REMARK   17  A    between atoms: _37  and  _38
REMARK   18  A    between atoms: _38  and  _39
REMARK   19  A    between atoms: _39  and  _40
REMARK   20  A    between atoms: _40  and  _41
REMARK   21  A    between atoms: _45  and  _47
REMARK   22  A    between atoms: _47  and  _48
REMARK   23  A    between atoms: _50  and  _52
REMARK   24  A    between atoms: _52  and  _53
REMARK   25  A    between atoms: _52  and  _55
REMARK   26  A    between atoms: _55  and  _56
REMARK   27  A    between atoms: _56  and  _57
REMARK   28  A    between atoms: _59  and  _61
REMARK   29  A    between atoms: _61  and  _62
REMARK   30  A    between atoms: _61  and  _64
REMARK   31  A    between atoms: _64  and  _65
REMARK   32  A    between atoms: _65  and  _66
REMARK   33  A    between atoms: _69  and  _71
REMARK   34  A    between atoms: _71  and  _72
REMARK   35  A    between atoms: _75  and  _77
REMARK   36  A    between atoms: _77  and  _78
REMARK   37  A    between atoms: _77  and  _80
REMARK   38  A    between atoms: _80  and  _81
REMARK   39  A    between atoms: _84  and  _86
REMARK   40  A    between atoms: _86  and  _87
REMARK   41  A    between atoms: _86  and  _89
REMARK   42  A    between atoms: _89  and  _90
REMARK   43  A    between atoms: _90  and  _91
REMARK   44  A    between atoms: _96  and  _98
REMARK   45  A    between atoms: _98  and  _99
REMARK   46  A    between atoms: _98  and  _101
REMARK   47  A    between atoms: _101  and  _102
REMARK   48  A    between atoms: _105  and  _107
REMARK   49  A    between atoms: _107  and  _108
REMARK   50  A    between atoms: _107  and  _110
REMARK   51  A    between atoms: _113  and  _115
REMARK   52  A    between atoms: _115  and  _116
REMARK   53  A    between atoms: _115  and  _118
REMARK   54  A    between atoms: _118  and  _119
REMARK   55  A    between atoms: _122  and  _124
REMARK   56  A    between atoms: _124  and  _125
REMARK   57  A    between atoms: _124  and  _127
REMARK   58  A    between atoms: _127  and  _128
REMARK   59  A    between atoms: _128  and  _129
REMARK   60  A    between atoms: _129  and  _130
REMARK   61  A    between atoms: _130  and  _131
REMARK   62  A    between atoms: _135  and  _137
REMARK   63  A    between atoms: _137  and  _138
REMARK   64  A    between atoms: _137  and  _140
REMARK   65  A    between atoms: _143  and  _145
REMARK   66  A    between atoms: _145  and  _146
REMARK   67  A    between atoms: _145  and  _148
REMARK   68  A    between atoms: _148  and  _149
REMARK   69  A    between atoms: _154  and  _155
REMARK   70  A    between atoms: _157  and  _159
REMARK   71  A    between atoms: _159  and  _160
REMARK   72  A    between atoms: _163  and  _165
REMARK   73  A    between atoms: _165  and  _166
REMARK   74  A    between atoms: _165  and  _168
REMARK   75  A    between atoms: _168  and  _169
REMARK   76  A    between atoms: _175  and  _177
REMARK   77  A    between atoms: _177  and  _178
REMARK   78  A    between atoms: _177  and  _180
REMARK   79  A    between atoms: _180  and  _181
REMARK   80  A    between atoms: _183  and  _185
REMARK   81  A    between atoms: _185  and  _186
REMARK   82  A    between atoms: _185  and  _188
REMARK   83  A    between atoms: _188  and  _189
REMARK   84  A    between atoms: _194  and  _196
REMARK   85  A    between atoms: _196  and  _197
REMARK   86  A    between atoms: _196  and  _199
REMARK   87  A    between atoms: _202  and  _204
REMARK   88  A    between atoms: _204  and  _205
REMARK   89  A    between atoms: _204  and  _207
REMARK   90  A    between atoms: _207  and  _208
REMARK   91  A    between atoms: _208  and  _209
REMARK   92  A    between atoms: _209  and  _210
REMARK   93  A    between atoms: _210  and  _211
REMARK   94  A    between atoms: _215  and  _217
REMARK   95  A    between atoms: _217  and  _218
REMARK   96  A    between atoms: _217  and  _220
REMARK   97  A    between atoms: _220  and  _221
REMARK   98  A    between atoms: _227  and  _229
REMARK   99  A    between atoms: _229  and  _230
REMARK  100  A    between atoms: _229  and  _232
REMARK  101  A    between atoms: _232  and  _233
REMARK  102  A    between atoms: _236  and  _238
REMARK  103  A    between atoms: _238  and  _239
REMARK  104  A    between atoms: _238  and  _241
REMARK  105  A    between atoms: _241  and  _242
REMARK  106  A    between atoms: _242  and  _243
REMARK  107  A    between atoms: _245  and  _247
REMARK  108  A    between atoms: _247  and  _248
REMARK  109  A    between atoms: _247  and  _250
REMARK  110  A    between atoms: _250  and  _251
REMARK  111  A    between atoms: _256  and  _258
REMARK  112  A    between atoms: _258  and  _259
REMARK  113  A    between atoms: _258  and  _261
REMARK  114  A    between atoms: _261  and  _262
REMARK  115  A    between atoms: _266  and  _267
REMARK  116  A    between atoms: _272  and  _274
REMARK  117  A    between atoms: _274  and  _275
REMARK  118  A    between atoms: _274  and  _277
REMARK  119  A    between atoms: _280  and  _282
REMARK  120  A    between atoms: _282  and  _283
REMARK  121  A    between atoms: _282  and  _285
REMARK  122  A    between atoms: _285  and  _286
REMARK  123  A    between atoms: _286  and  _287
REMARK  124  A    between atoms: _290  and  _292
REMARK  125  A    between atoms: _292  and  _293
REMARK  126  A    between atoms: _292  and  _295
REMARK  127  A    between atoms: _295  and  _296
REMARK  128  A    between atoms: _302  and  _304
REMARK  129  A    between atoms: _304  and  _305
REMARK  130  A    between atoms: _304  and  _307
REMARK  131  A    between atoms: _307  and  _308
REMARK  132  A    between atoms: _313  and  _314
REMARK  133  A    between atoms: _316  and  _318
REMARK  134  A    between atoms: _318  and  _319
REMARK  135  A    between atoms: _318  and  _321
REMARK  136  A    between atoms: _321  and  _322
REMARK  137  A    between atoms: _325  and  _327
REMARK  138  A    between atoms: _327  and  _328
REMARK  139  A    between atoms: _327  and  _330
REMARK  140  A    between atoms: _330  and  _331
REMARK  141  A    between atoms: _336  and  _338
REMARK  142  A    between atoms: _338  and  _339
REMARK  143  A    between atoms: _338  and  _341
REMARK  144  A    between atoms: _341  and  _342
REMARK  145  A    between atoms: _347  and  _348
REMARK  146  A    between atoms: _350  and  _352
REMARK  147  A    between atoms: _352  and  _353
REMARK  148  A    between atoms: _352  and  _355
REMARK  149  A    between atoms: _359  and  _360
REMARK  150  A    between atoms: _365  and  _367
REMARK  151  A    between atoms: _367  and  _368
REMARK  152  A    between atoms: _367  and  _370
REMARK  153  A    between atoms: _370  and  _371
REMARK  154  A    between atoms: _371  and  _372
REMARK  155  A    between atoms: _375  and  _377
REMARK  156  A    between atoms: _377  and  _378
REMARK  157  A    between atoms: _377  and  _380
REMARK  158  A    between atoms: _380  and  _381
REMARK  159  A    between atoms: _384  and  _386
REMARK  160  A    between atoms: _386  and  _387
REMARK  161  A    between atoms: _386  and  _389
REMARK  162  A    between atoms: _389  and  _390
REMARK  163  A    between atoms: _395  and  _397
REMARK  164  A    between atoms: _397  and  _398
REMARK  165  A    between atoms: _397  and  _400
REMARK  166  A    between atoms: _403  and  _405
REMARK  167  A    between atoms: _405  and  _406
REMARK  168  A    between atoms: _405  and  _408
REMARK  169  A    between atoms: _408  and  _409
REMARK  170  A    between atoms: _412  and  _414
REMARK  171  A    between atoms: _414  and  _415
REMARK  172  A    between atoms: _414  and  _417
REMARK  173  A    between atoms: _417  and  _418
REMARK  174  A    between atoms: _418  and  _419
REMARK  175  A    between atoms: _424  and  _426
REMARK  176  A    between atoms: _426  and  _427
REMARK  177  A    between atoms: _426  and  _429
REMARK  178  A    between atoms: _429  and  _430
REMARK  179  A    between atoms: _430  and  _431
REMARK  180  A    between atoms: _433  and  _435
REMARK  181  A    between atoms: _435  and  _436
REMARK  182  A    between atoms: _435  and  _438
REMARK  183  A    between atoms: _438  and  _439
REMARK  184  A    between atoms: _443  and  _444
REMARK  185  A    between atoms: _449  and  _451
REMARK  186  A    between atoms: _451  and  _452
REMARK  187  A    between atoms: _451  and  _454
REMARK  188  A    between atoms: _454  and  _455
REMARK  189  A    between atoms: _458  and  _460
REMARK  190  A    between atoms: _460  and  _461
REMARK  191  A    between atoms: _460  and  _463
REMARK  192  A    between atoms: _463  and  _464
REMARK  193  A    between atoms: _470  and  _472
REMARK  194  A    between atoms: _472  and  _473
REMARK  195  A    between atoms: _472  and  _475
REMARK  196  A    between atoms: _475  and  _476
REMARK  197  A    between atoms: _476  and  _477
REMARK  198  A    between atoms: _480  and  _482
REMARK  199  A    between atoms: _482  and  _483
REMARK  200  A    between atoms: _486  and  _488
REMARK  201  A    between atoms: _488  and  _489
REMARK  202  A    between atoms: _488  and  _491
REMARK  203  A    between atoms: _491  and  _492
REMARK  204  A    between atoms: _495  and  _497
REMARK  205  A    between atoms: _497  and  _498
REMARK  206  A    between atoms: _497  and  _500
REMARK  207  A    between atoms: _500  and  _501
REMARK  208  A    between atoms: _504  and  _506
REMARK  209  A    between atoms: _506  and  _507
REMARK  210  A    between atoms: _506  and  _509
REMARK  211  A    between atoms: _509  and  _510
REMARK  212  A    between atoms: _510  and  _511
REMARK  213  A    between atoms: _511  and  _512
REMARK  214  A    between atoms: _512  and  _513
REMARK  215  A    between atoms: _517  and  _519
REMARK  216  A    between atoms: _519  and  _520
REMARK  217  A    between atoms: _523  and  _525
REMARK  218  A    between atoms: _525  and  _526
REMARK  219  A    between atoms: _525  and  _528
REMARK  220  A    between atoms: _528  and  _529
REMARK  221  A    between atoms: _529  and  _530
REMARK  222  A    between atoms: _533  and  _535
REMARK  223  A    between atoms: _535  and  _536
REMARK  224  A    between atoms: _535  and  _538
REMARK  225  A    between atoms: _538  and  _539
REMARK  226  A    between atoms: _542  and  _544
REMARK  227  A    between atoms: _544  and  _545
REMARK  228  A    between atoms: _544  and  _547
REMARK  229  A    between atoms: _547  and  _548
REMARK  230  A    between atoms: _551  and  _553
REMARK  231  A    between atoms: _553  and  _554
REMARK  232  A    between atoms: _553  and  _556
REMARK  233  A    between atoms: _556  and  _557
REMARK  234  A    between atoms: _563  and  _565
REMARK  235  A    between atoms: _565  and  _566
REMARK  236  A    between atoms: _569  and  _571
REMARK  237  A    between atoms: _571  and  _572
REMARK  238  A    between atoms: _571  and  _574
REMARK  239  A    between atoms: _574  and  _575
REMARK  240  A    between atoms: _578  and  _580
REMARK  241  A    between atoms: _580  and  _581
REMARK  242  A    between atoms: _580  and  _583
REMARK  243  A    between atoms: _583  and  _584
REMARK  244  A    between atoms: _589  and  _591
REMARK  245  A    between atoms: _591  and  _592
REMARK  246  A    between atoms: _591  and  _594
REMARK  247  A    between atoms: _594  and  _595
REMARK                            x       y       z     vdW  Elec       q    Type
REMARK                         _______ _______ _______ _____ _____    ______ ____
ROOT
ATOM      1  CA  LEU A   1      24.920 -19.436  16.561  0.00  0.00    +0.133 C 
ENDROOT
BRANCH   1   2
ATOM      2  N   LEU A   1      24.633 -20.469  17.547  0.00  0.00    -0.239 NA
ATOM      3  H   LEU A   1      24.183 -21.353  17.234  0.00  0.00    +0.142 HD
ENDBRANCH   1   2
BRANCH   1   4
ATOM      4  C   LEU A   1      23.611 -18.692  16.415  0.00  0.00    +0.224 C 
ATOM      5  O   LEU A   1      22.612 -19.225  15.913  0.00  0.00    -0.287 OA
ENDBRANCH   1   4
BRANCH   1   6
ATOM      6  CB  LEU A   1      25.424 -20.021  15.235  0.00  0.00    +0.025 C 
BRANCH   6   7
ATOM      7  CG  LEU A   1      25.563 -19.045  14.046  0.00  0.00    +0.002 C 
ATOM      8  CD2 LEU A   1      26.497 -17.845  14.366  0.00  0.00    +0.000 C 
ATOM      9  CD1 LEU A   1      25.994 -19.789  12.797  0.00  0.00    +0.000 C 
ENDBRANCH   6   7
ENDBRANCH   1   6
TORSDOF 4
REMARK  Name = ../refined-set-2016/4q9o/4q9o_pocket.pdb
REMARK  247 active torsions:
REMARK  status: ('A' for Active; 'I' for Inactive)
REMARK    1  A    between atoms: _1  and  _3
REMARK    2  A    between atoms: _3  and  _4
REMARK    3  A    between atoms: _3  and  _6
REMARK    4  A    between atoms: _6  and  _7
REMARK    5  A    between atoms: _7  and  _8
REMARK    6  A    between atoms: _10  and  _12
REMARK    7  A    between atoms: _12  and  _13
REMARK    8  A    between atoms: _12  and  _15
REMARK    9  A    between atoms: _15  and  _16
REMARK   10  A    between atoms: _21  and  _23
REMARK   11  A    between atoms: _23  and  _24
REMARK   12  A    between atoms: _23  and  _26
REMARK   13  A    between atoms: _26  and  _27
REMARK   14  A    between atoms: _32  and  _34
REMARK   15  A    between atoms: _34  and  _35
REMARK   16  A    between atoms: _34  and  _37
REMARK   17  A    between atoms: _37  and  _38
REMARK   18  A    between atoms: _38  and  _39
REMARK   19  A    between atoms: _39  and  _40
REMARK   20  A    between atoms: _40  and  _41
REMARK   21  A    between atoms: _45  and  _47
REMARK   22  A    between atoms: _47  and  _48
REMARK   23  A    between atoms: _50  and  _52
REMARK   24  A    between atoms: _52  and  _53
REMARK   25  A    between atoms: _52  and  _55
REMARK   26  A    between atoms: _55  and  _56
REMARK   27  A    between atoms: _56  and  _57
REMARK   28  A    between atoms: _59  and  _61
REMARK   29  A    between atoms: _61  and  _62
REMARK   30  A    between atoms: _61  and  _64
REMARK   31  A    between atoms: _64  and  _65
REMARK   32  A    between atoms: _65  and  _66
REMARK   33  A    between atoms: _69  and  _71
REMARK   34  A    between atoms: _71  and  _72
REMARK   35  A    between atoms: _75  and  _77
REMARK   36  A    between atoms: _77  and  _78
REMARK   37  A    between atoms: _77  and  _80
REMARK   38  A    between atoms: _80  and  _81
REMARK   39  A    between atoms: _84  and  _86
REMARK   40  A    between atoms: _86  and  _87
REMARK   41  A    between atoms: _86  and  _89
REMARK   42  A    between atoms: _89  and  _90
REMARK   43  A    between atoms: _90  and  _91
REMARK   44  A    between atoms: _96  and  _98
REMARK   45  A    between atoms: _98  and  _99
REMARK   46  A    between atoms: _98  and  _101
REMARK   47  A    between atoms: _101  and  _102
REMARK   48  A    between atoms: _105  and  _107
REMARK   49  A    between atoms: _107  and  _108
REMARK   50  A    between atoms: _107  and  _110
REMARK   51  A    between atoms: _113  and  _115
REMARK   52  A    between atoms: _115  and  _116
REMARK   53  A    between atoms: _115  and  _118
REMARK   54  A    between atoms: _118  and  _119
REMARK   55  A    between atoms: _122  and  _124
REMARK   56  A    between atoms: _124  and  _125
REMARK   57  A    between atoms: _124  and  _127
REMARK   58  A    between atoms: _127  and  _128
REMARK   59  A    between atoms: _128  and  _129
REMARK   60  A    between atoms: _129  and  _130
REMARK   61  A    between atoms: _130  and  _131
REMARK   62  A    between atoms: _135  and  _137
REMARK   63  A    between atoms: _137  and  _138
REMARK   64  A    between atoms: _137  and  _140
REMARK   65  A    between atoms: _143  and  _145
REMARK   66  A    between atoms: _145  and  _146
REMARK   67  A    between atoms: _145  and  _148
REMARK   68  A    between atoms: _148  and  _149
REMARK   69  A    between atoms: _154  and  _155
REMARK   70  A    between atoms: _157  and  _159
REMARK   71  A    between atoms: _159  and  _160
REMARK   72  A    between atoms: _163  and  _165
REMARK   73  A    between atoms: _165  and  _166
REMARK   74  A    between atoms: _165  and  _168
REMARK   75  A    between atoms: _168  and  _169
REMARK   76  A    between atoms: _175  and  _177
REMARK   77  A    between atoms: _177  and  _178
REMARK   78  A    between atoms: _177  and  _180
REMARK   79  A    between atoms: _180  and  _181
REMARK   80  A    between atoms: _183  and  _185
REMARK   81  A    between atoms: _185  and  _186
REMARK   82  A    between atoms: _185  and  _188
REMARK   83  A    between atoms: _188  and  _189
REMARK   84  A    between atoms: _194  and  _196
REMARK   85  A    between atoms: _196  and  _197
REMARK   86  A    between atoms: _196  and  _199
REMARK   87  A    between atoms: _202  and  _204
REMARK   88  A    between atoms: _204  and  _205
REMARK   89  A    between atoms: _204  and  _207
REMARK   90  A    between atoms: _207  and  _208
REMARK   91  A    between atoms: _208  and  _209
REMARK   92  A    between atoms: _209  and  _210
REMARK   93  A    between atoms: _210  and  _211
REMARK   94  A    between atoms: _215  and  _217
REMARK   95  A    between atoms: _217  and  _218
REMARK   96  A    between atoms: _217  and  _220
REMARK   97  A    between atoms: _220  and  _221
REMARK   98  A    between atoms: _227  and  _229
REMARK   99  A    between atoms: _229  and  _230
REMARK  100  A    between atoms: _229  and  _232
REMARK  101  A    between atoms: _232  and  _233
REMARK  102  A    between atoms: _236  and  _238
REMARK  103  A    between atoms: _238  and  _239
REMARK  104  A    between atoms: _238  and  _241
REMARK  105  A    between atoms: _241  and  _242
REMARK  106  A    between atoms: _242  and  _243
REMARK  107  A    between atoms: _245  and  _247
REMARK  108  A    between atoms: _247  and  _248
REMARK  109  A    between atoms: _247  and  _250
REMARK  110  A    between atoms: _250  and  _251
REMARK  111  A    between atoms: _256  and  _258
REMARK  112  A    between atoms: _258  and  _259
REMARK  113  A    between atoms: _258  and  _261
REMARK  114  A    between atoms: _261  and  _262
REMARK  115  A    between atoms: _266  and  _267
REMARK  116  A    between atoms: _272  and  _274
REMARK  117  A    between atoms: _274  and  _275
REMARK  118  A    between atoms: _274  and  _277
REMARK  119  A    between atoms: _280  and  _282
REMARK  120  A    between atoms: _282  and  _283
REMARK  121  A    between atoms: _282  and  _285
REMARK  122  A    between atoms: _285  and  _286
REMARK  123  A    between atoms: _286  and  _287
REMARK  124  A    between atoms: _290  and  _292
REMARK  125  A    between atoms: _292  and  _293
REMARK  126  A    between atoms: _292  and  _295
REMARK  127  A    between atoms: _295  and  _296
REMARK  128  A    between atoms: _302  and  _304
REMARK  129  A    between atoms: _304  and  _305
REMARK  130  A    between atoms: _304  and  _307
REMARK  131  A    between atoms: _307  and  _308
REMARK  132  A    between atoms: _313  and  _314
REMARK  133  A    between atoms: _316  and  _318
REMARK  134  A    between atoms: _318  and  _319
REMARK  135  A    between atoms: _318  and  _321
REMARK  136  A    between atoms: _321  and  _322
REMARK  137  A    between atoms: _325  and  _327
REMARK  138  A    between atoms: _327  and  _328
REMARK  139  A    between atoms: _327  and  _330
REMARK  140  A    between atoms: _330  and  _331
REMARK  141  A    between atoms: _336  and  _338
REMARK  142  A    between atoms: _338  and  _339
REMARK  143  A    between atoms: _338  and  _341
REMARK  144  A    between atoms: _341  and  _342
REMARK  145  A    between atoms: _347  and  _348
REMARK  146  A    between atoms: _350  and  _352
REMARK  147  A    between atoms: _352  and  _353
REMARK  148  A    between atoms: _352  and  _355
REMARK  149  A    between atoms: _359  and  _360
REMARK  150  A    between atoms: _365  and  _367
REMARK  151  A    between atoms: _367  and  _368
REMARK  152  A    between atoms: _367  and  _370
REMARK  153  A    between atoms: _370  and  _371
REMARK  154  A    between atoms: _371  and  _372
REMARK  155  A    between atoms: _375  and  _377
REMARK  156  A    between atoms: _377  and  _378
REMARK  157  A    between atoms: _377  and  _380
REMARK  158  A    between atoms: _380  and  _381
REMARK  159  A    between atoms: _384  and  _386
REMARK  160  A    between atoms: _386  and  _387
REMARK  161  A    between atoms: _386  and  _389
REMARK  162  A    between atoms: _389  and  _390
REMARK  163  A    between atoms: _395  and  _397
REMARK  164  A    between atoms: _397  and  _398
REMARK  165  A    between atoms: _397  and  _400
REMARK  166  A    between atoms: _403  and  _405
REMARK  167  A    between atoms: _405  and  _406
REMARK  168  A    between atoms: _405  and  _408
REMARK  169  A    between atoms: _408  and  _409
REMARK  170  A    between atoms: _412  and  _414
REMARK  171  A    between atoms: _414  and  _415
REMARK  172  A    between atoms: _414  and  _417
REMARK  173  A    between atoms: _417  and  _418
REMARK  174  A    between atoms: _418  and  _419
REMARK  175  A    between atoms: _424  and  _426
REMARK  176  A    between atoms: _426  and  _427
REMARK  177  A    between atoms: _426  and  _429
REMARK  178  A    between atoms: _429  and  _430
REMARK  179  A    between atoms: _430  and  _431
REMARK  180  A    between atoms: _433  and  _435
REMARK  181  A    between atoms: _435  and  _436
REMARK  182  A    between atoms: _435  and  _438
REMARK  183  A    between atoms: _438  and  _439
REMARK  184  A    between atoms: _443  and  _444
REMARK  185  A    between atoms: _449  and  _451
REMARK  186  A    between atoms: _451  and  _452
REMARK  187  A    between atoms: _451  and  _454
REMARK  188  A    between atoms: _454  and  _455
REMARK  189  A    between atoms: _458  and  _460
REMARK  190  A    between atoms: _460  and  _461
REMARK  191  A    between atoms: _460  and  _463
REMARK  192  A    between atoms: _463  and  _464
REMARK  193  A    between atoms: _470  and  _472
REMARK  194  A    between atoms: _472  and  _473
REMARK  195  A    between atoms: _472  and  _475
REMARK  196  A    between atoms: _475  and  _476
REMARK  197  A    between atoms: _476  and  _477
REMARK  198  A    between atoms: _480  and  _482
REMARK  199  A    between atoms: _482  and  _483
REMARK  200  A    between atoms: _486  and  _488
REMARK  201  A    between atoms: _488  and  _489
REMARK  202  A    between atoms: _488  and  _491
REMARK  203  A    between atoms: _491  and  _492
REMARK  204  A    between atoms: _495  and  _497
REMARK  205  A    between atoms: _497  and  _498
REMARK  206  A    between atoms: _497  and  _500
REMARK  207  A    between atoms: _500  and  _501
REMARK  208  A    between atoms: _504  and  _506
REMARK  209  A    between atoms: _506  and  _507
REMARK  210  A    between atoms: _506  and  _509
REMARK  211  A    between atoms: _509  and  _510
REMARK  212  A    between atoms: _510  and  _511
REMARK  213  A    between atoms: _511  and  _512
REMARK  214  A    between atoms: _512  and  _513
REMARK  215  A    between atoms: _517  and  _519
REMARK  216  A    between atoms: _519  and  _520
REMARK  217  A    between atoms: _523  and  _525
REMARK  218  A    between atoms: _525  and  _526
REMARK  219  A    between atoms: _525  and  _528
REMARK  220  A    between atoms: _528  and  _529
REMARK  221  A    between atoms: _529  and  _530
REMARK  222  A    between atoms: _533  and  _535
REMARK  223  A    between atoms: _535  and  _536
REMARK  224  A    between atoms: _535  and  _538
REMARK  225  A    between atoms: _538  and  _539
REMARK  226  A    between atoms: _542  and  _544
REMARK  227  A    between atoms: _544  and  _545
REMARK  228  A    between atoms: _544  and  _547
REMARK  229  A    between atoms: _547  and  _548
REMARK  230  A    between atoms: _551  and  _553
REMARK  231  A    between atoms: _553  and  _554
REMARK  232  A    between atoms: _553  and  _556
REMARK  233  A    between atoms: _556  and  _557
REMARK  234  A    between atoms: _563  and  _565
REMARK  235  A    between atoms: _565  and  _566
REMARK  236  A    between atoms: _569  and  _571
REMARK  237  A    between atoms: _571  and  _572
REMARK  238  A    between atoms: _571  and  _574
REMARK  239  A    between atoms: _574  and  _575
REMARK  240  A    between atoms: _578  and  _580
REMARK  241  A    between atoms: _580  and  _581
REMARK  242  A    between atoms: _580  and  _583
REMARK  243  A    between atoms: _583  and  _584
REMARK  244  A    between atoms: _589  and  _591
REMARK  245  A    between atoms: _591  and  _592
REMARK  246  A    between atoms: _591  and  _594
REMARK  247  A    between atoms: _594  and  _595
REMARK                            x       y       z     vdW  Elec       q    Type
REMARK                         _______ _______ _______ _____ _____    ______ ____
ROOT
ATOM      1  C   ALA A   2      19.980 -10.335  13.353  0.00  0.00    +0.241 C 
ATOM      2  N   LEU A   3      18.695 -10.545  13.012  0.00  0.00    -0.297 N 
ATOM      3  H   LEU A   3      18.070 -10.936  13.746  0.00  0.00    +0.150 HD
ATOM      4  O   ALA A   2      20.812  -9.853  12.576  0.00  0.00    -0.273 OA
ENDROOT
BRANCH   1   5
ATOM      5  CA  ALA A   2      20.399 -10.855  14.744  0.00  0.00    +0.149 C 
ATOM      6  CB  ALA A   2      21.216  -9.815  15.516  0.00  0.00    +0.031 C 
BRANCH   5   9
ATOM      7  C   PHE A   1      20.642 -13.283  14.384  0.00  0.00    +0.239 C 
ATOM      8  O   PHE A   1      19.442 -13.487  14.557  0.00  0.00    -0.274 OA
ATOM      9  N   ALA A   2      21.195 -12.062  14.490  0.00  0.00    -0.297 N 
ATOM     10  H   ALA A   2      22.226 -11.969  14.388  0.00  0.00    +0.150 HD
BRANCH   7  11
ATOM     11  CA  PHE A   1      21.553 -14.444  13.986  0.00  0.00    +0.149 C 
BRANCH  11  12
ATOM     12  N   PHE A   1      21.631 -15.493  15.029  0.00  0.00    -0.238 NA
ATOM     13  H   PHE A   1      20.981 -16.302  14.960  0.00  0.00    +0.142 HD
ENDBRANCH  11  12
BRANCH  11  14
ATOM     14  CB  PHE A   1      21.059 -15.032  12.634  0.00  0.00    +0.053 C 
BRANCH  14  15
ATOM     15  CG  PHE A   1      22.013 -15.984  11.967  0.00  0.00    -0.020 A 
ATOM     16  CD2 PHE A   1      22.004 -17.343  12.283  0.00  0.00    -0.004 A 
ATOM     17  CE2 PHE A   1      22.897 -18.227  11.672  0.00  0.00    -0.000 A 
ATOM     18  CZ  PHE A   1      23.791 -17.762  10.733  0.00  0.00    -0.000 A 
ATOM     19  CE1 PHE A   1      23.802 -16.423  10.391  0.00  0.00    -0.000 A 
ATOM     20  CD1 PHE A   1      22.907 -15.535  11.003  0.00  0.00    -0.004 A 
ENDBRANCH  14  15
ENDBRANCH  11  14
ENDBRANCH   7  11
ENDBRANCH   5   9
ENDBRANCH   1   5
BRANCH   2  21
ATOM     21  CA  LEU A   3      18.095 -10.274  11.703  0.00  0.00    +0.149 C 
BRANCH  21  22
ATOM     22  C   LEU A   3      16.951  -9.325  11.825  0.00  0.00    +0.241 C 
ATOM     23  O   LEU A   3      16.038  -9.565  12.616  0.00  0.00    -0.273 OA
ATOM     24  N   ASN A   4      16.980  -8.243  11.021  0.00  0.00    -0.298 N 
ATOM     25  H   ASN A   4      17.721  -8.206  10.292  0.00  0.00    +0.150 HD
BRANCH  24  26
ATOM     26  CA  ASN A   4      16.049  -7.118  11.096  0.00  0.00    +0.146 C 
BRANCH  26  27
ATOM     27  C   ASN A   4      16.080  -6.676  12.576  0.00  0.00    +0.227 C 
ATOM     28  O   ASN A   4      15.073  -6.697  13.286  0.00  0.00    -0.286 OA
ENDBRANCH  26  27
BRANCH  26  29
ATOM     29  CB  ASN A   4      14.643  -7.477  10.580  0.00  0.00    +0.112 C 
BRANCH  29  30
ATOM     30  CG  ASN A   4      13.734  -6.278  10.445  0.00  0.00    +0.222 C 
ATOM     31  ND2 ASN A   4      12.457  -6.480  10.643  0.00  0.00    -0.329 N 
ATOM     32 HD21 ASN A   4      12.109  -7.437  10.855  0.00  0.00    +0.145 HD
ATOM     33 HD22 ASN A   4      11.790  -5.684  10.589  0.00  0.00    +0.145 HD
ATOM     34  OD1 ASN A   4      14.163  -5.151  10.193  0.00  0.00    -0.275 OA
ENDBRANCH  29  30
ENDBRANCH  26  29
ENDBRANCH  24  26
ENDBRANCH  21  22
BRANCH  21  35
ATOM     35  CB  LEU A   3      17.604 -11.595  11.091  0.00  0.00    +0.029 C 
BRANCH  35  36
ATOM     36  CG  LEU A   3      18.671 -12.574  10.671  0.00  0.00    +0.002 C 
ATOM     37  CD2 LEU A   3      18.060 -13.918  10.391  0.00  0.00    +0.000 C 
ATOM     38  CD1 LEU A   3      19.409 -12.064   9.449  0.00  0.00    +0.000 C 
ENDBRANCH  35  36
ENDBRANCH  21  35
ENDBRANCH   2  21
TORSDOF 14
REMARK  Name = ../refined-set-2016/4q9o/4q9o_pocket.pdb
REMARK  247 active torsions:
REMARK  status: ('A' for Active; 'I' for Inactive)
REMARK    1  A    between atoms: _1  and  _3
REMARK    2  A    between atoms: _3  and  _4
REMARK    3  A    between atoms: _3  and  _6
REMARK    4  A    between atoms: _6  and  _7
REMARK    5  A    between atoms: _7  and  _8
REMARK    6  A    between atoms: _10  and  _12
REMARK    7  A    between atoms: _12  and  _13
REMARK    8  A    between atoms: _12  and  _15
REMARK    9  A    between atoms: _15  and  _16
REMARK   10  A    between atoms: _21  and  _23
REMARK   11  A    between atoms: _23  and  _24
REMARK   12  A    between atoms: _23  and  _26
REMARK   13  A    between atoms: _26  and  _27
REMARK   14  A    between atoms: _32  and  _34
REMARK   15  A    between atoms: _34  and  _35
REMARK   16  A    between atoms: _34  and  _37
REMARK   17  A    between atoms: _37  and  _38
REMARK   18  A    between atoms: _38  and  _39
REMARK   19  A    between atoms: _39  and  _40
REMARK   20  A    between atoms: _40  and  _41
REMARK   21  A    between atoms: _45  and  _47
REMARK   22  A    between atoms: _47  and  _48
REMARK   23  A    between atoms: _50  and  _52
REMARK   24  A    between atoms: _52  and  _53
REMARK   25  A    between atoms: _52  and  _55
REMARK   26  A    between atoms: _55  and  _56
REMARK   27  A    between atoms: _56  and  _57
REMARK   28  A    between atoms: _59  and  _61
REMARK   29  A    between atoms: _61  and  _62
REMARK   30  A    between atoms: _61  and  _64
REMARK   31  A    between atoms: _64  and  _65
REMARK   32  A    between atoms: _65  and  _66
REMARK   33  A    between atoms: _69  and  _71
REMARK   34  A    between atoms: _71  and  _72
REMARK   35  A    between atoms: _75  and  _77
REMARK   36  A    between atoms: _77  and  _78
REMARK   37  A    between atoms: _77  and  _80
REMARK   38  A    between atoms: _80  and  _81
REMARK   39  A    between atoms: _84  and  _86
REMARK   40  A    between atoms: _86  and  _87
REMARK   41  A    between atoms: _86  and  _89
REMARK   42  A    between atoms: _89  and  _90
REMARK   43  A    between atoms: _90  and  _91
REMARK   44  A    between atoms: _96  and  _98
REMARK   45  A    between atoms: _98  and  _99
REMARK   46  A    between atoms: _98  and  _101
REMARK   47  A    between atoms: _101  and  _102
REMARK   48  A    between atoms: _105  and  _107
REMARK   49  A    between atoms: _107  and  _108
REMARK   50  A    between atoms: _107  and  _110
REMARK   51  A    between atoms: _113  and  _115
REMARK   52  A    between atoms: _115  and  _116
REMARK   53  A    between atoms: _115  and  _118
REMARK   54  A    between atoms: _118  and  _119
REMARK   55  A    between atoms: _122  and  _124
REMARK   56  A    between atoms: _124  and  _125
REMARK   57  A    between atoms: _124  and  _127
REMARK   58  A    between atoms: _127  and  _128
REMARK   59  A    between atoms: _128  and  _129
REMARK   60  A    between atoms: _129  and  _130
REMARK   61  A    between atoms: _130  and  _131
REMARK   62  A    between atoms: _135  and  _137
REMARK   63  A    between atoms: _137  and  _138
REMARK   64  A    between atoms: _137  and  _140
REMARK   65  A    between atoms: _143  and  _145
REMARK   66  A    between atoms: _145  and  _146
REMARK   67  A    between atoms: _145  and  _148
REMARK   68  A    between atoms: _148  and  _149
REMARK   69  A    between atoms: _154  and  _155
REMARK   70  A    between atoms: _157  and  _159
REMARK   71  A    between atoms: _159  and  _160
REMARK   72  A    between atoms: _163  and  _165
REMARK   73  A    between atoms: _165  and  _166
REMARK   74  A    between atoms: _165  and  _168
REMARK   75  A    between atoms: _168  and  _169
REMARK   76  A    between atoms: _175  and  _177
REMARK   77  A    between atoms: _177  and  _178
REMARK   78  A    between atoms: _177  and  _180
REMARK   79  A    between atoms: _180  and  _181
REMARK   80  A    between atoms: _183  and  _185
REMARK   81  A    between atoms: _185  and  _186
REMARK   82  A    between atoms: _185  and  _188
REMARK   83  A    between atoms: _188  and  _189
REMARK   84  A    between atoms: _194  and  _196
REMARK   85  A    between atoms: _196  and  _197
REMARK   86  A    between atoms: _196  and  _199
REMARK   87  A    between atoms: _202  and  _204
REMARK   88  A    between atoms: _204  and  _205
REMARK   89  A    between atoms: _204  and  _207
REMARK   90  A    between atoms: _207  and  _208
REMARK   91  A    between atoms: _208  and  _209
REMARK   92  A    between atoms: _209  and  _210
REMARK   93  A    between atoms: _210  and  _211
REMARK   94  A    between atoms: _215  and  _217
REMARK   95  A    between atoms: _217  and  _218
REMARK   96  A    between atoms: _217  and  _220
REMARK   97  A    between atoms: _220  and  _221
REMARK   98  A    between atoms: _227  and  _229
REMARK   99  A    between atoms: _229  and  _230
REMARK  100  A    between atoms: _229  and  _232
REMARK  101  A    between atoms: _232  and  _233
REMARK  102  A    between atoms: _236  and  _238
REMARK  103  A    between atoms: _238  and  _239
REMARK  104  A    between atoms: _238  and  _241
REMARK  105  A    between atoms: _241  and  _242
REMARK  106  A    between atoms: _242  and  _243
REMARK  107  A    between atoms: _245  and  _247
REMARK  108  A    between atoms: _247  and  _248
REMARK  109  A    between atoms: _247  and  _250
REMARK  110  A    between atoms: _250  and  _251
REMARK  111  A    between atoms: _256  and  _258
REMARK  112  A    between atoms: _258  and  _259
REMARK  113  A    between atoms: _258  and  _261
REMARK  114  A    between atoms: _261  and  _262
REMARK  115  A    between atoms: _266  and  _267
REMARK  116  A    between atoms: _272  and  _274
REMARK  117  A    between atoms: _274  and  _275
REMARK  118  A    between atoms: _274  and  _277
REMARK  119  A    between atoms: _280  and  _282
REMARK  120  A    between atoms: _282  and  _283
REMARK  121  A    between atoms: _282  and  _285
REMARK  122  A    between atoms: _285  and  _286
REMARK  123  A    between atoms: _286  and  _287
REMARK  124  A    between atoms: _290  and  _292
REMARK  125  A    between atoms: _292  and  _293
REMARK  126  A    between atoms: _292  and  _295
REMARK  127  A    between atoms: _295  and  _296
REMARK  128  A    between atoms: _302  and  _304
REMARK  129  A    between atoms: _304  and  _305
REMARK  130  A    between atoms: _304  and  _307
REMARK  131  A    between atoms: _307  and  _308
REMARK  132  A    between atoms: _313  and  _314
REMARK  133  A    between atoms: _316  and  _318
REMARK  134  A    between atoms: _318  and  _319
REMARK  135  A    between atoms: _318  and  _321
REMARK  136  A    between atoms: _321  and  _322
REMARK  137  A    between atoms: _325  and  _327
REMARK  138  A    between atoms: _327  and  _328
REMARK  139  A    between atoms: _327  and  _330
REMARK  140  A    between atoms: _330  and  _331
REMARK  141  A    between atoms: _336  and  _338
REMARK  142  A    between atoms: _338  and  _339
REMARK  143  A    between atoms: _338  and  _341
REMARK  144  A    between atoms: _341  and  _342
REMARK  145  A    between atoms: _347  and  _348
REMARK  146  A    between atoms: _350  and  _352
REMARK  147  A    between atoms: _352  and  _353
REMARK  148  A    between atoms: _352  and  _355
REMARK  149  A    between atoms: _359  and  _360
REMARK  150  A    between atoms: _365  and  _367
REMARK  151  A    between atoms: _367  and  _368
REMARK  152  A    between atoms: _367  and  _370
REMARK  153  A    between atoms: _370  and  _371
REMARK  154  A    between atoms: _371  and  _372
REMARK  155  A    between atoms: _375  and  _377
REMARK  156  A    between atoms: _377  and  _378
REMARK  157  A    between atoms: _377  and  _380
REMARK  158  A    between atoms: _380  and  _381
REMARK  159  A    between atoms: _384  and  _386
REMARK  160  A    between atoms: _386  and  _387
REMARK  161  A    between atoms: _386  and  _389
REMARK  162  A    between atoms: _389  and  _390
REMARK  163  A    between atoms: _395  and  _397
REMARK  164  A    between atoms: _397  and  _398
REMARK  165  A    between atoms: _397  and  _400
REMARK  166  A    between atoms: _403  and  _405
REMARK  167  A    between atoms: _405  and  _406
REMARK  168  A    between atoms: _405  and  _408
REMARK  169  A    between atoms: _408  and  _409
REMARK  170  A    between atoms: _412  and  _414
REMARK  171  A    between atoms: _414  and  _415
REMARK  172  A    between atoms: _414  and  _417
REMARK  173  A    between atoms: _417  and  _418
REMARK  174  A    between atoms: _418  and  _419
REMARK  175  A    between atoms: _424  and  _426
REMARK  176  A    between atoms: _426  and  _427
REMARK  177  A    between atoms: _426  and  _429
REMARK  178  A    between atoms: _429  and  _430
REMARK  179  A    between atoms: _430  and  _431
REMARK  180  A    between atoms: _433  and  _435
REMARK  181  A    between atoms: _435  and  _436
REMARK  182  A    between atoms: _435  and  _438
REMARK  183  A    between atoms: _438  and  _439
REMARK  184  A    between atoms: _443  and  _444
REMARK  185  A    between atoms: _449  and  _451
REMARK  186  A    between atoms: _451  and  _452
REMARK  187  A    between atoms: _451  and  _454
REMARK  188  A    between atoms: _454  and  _455
REMARK  189  A    between atoms: _458  and  _460
REMARK  190  A    between atoms: _460  and  _461
REMARK  191  A    between atoms: _460  and  _463
REMARK  192  A    between atoms: _463  and  _464
REMARK  193  A    between atoms: _470  and  _472
REMARK  194  A    between atoms: _472  and  _473
REMARK  195  A    between atoms: _472  and  _475
REMARK  196  A    between atoms: _475  and  _476
REMARK  197  A    between atoms: _476  and  _477
REMARK  198  A    between atoms: _480  and  _482
REMARK  199  A    between atoms: _482  and  _483
REMARK  200  A    between atoms: _486  and  _488
REMARK  201  A    between atoms: _488  and  _489
REMARK  202  A    between atoms: _488  and  _491
REMARK  203  A    between atoms: _491  and  _492
REMARK  204  A    between atoms: _495  and  _497
REMARK  205  A    between atoms: _497  and  _498
REMARK  206  A    between atoms: _497  and  _500
REMARK  207  A    between atoms: _500  and  _501
REMARK  208  A    between atoms: _504  and  _506
REMARK  209  A    between atoms: _506  and  _507
REMARK  210  A    between atoms: _506  and  _509
REMARK  211  A    between atoms: _509  and  _510
REMARK  212  A    between atoms: _510  and  _511
REMARK  213  A    between atoms: _511  and  _512
REMARK  214  A    between atoms: _512  and  _513
REMARK  215  A    between atoms: _517  and  _519
REMARK  216  A    between atoms: _519  and  _520
REMARK  217  A    between atoms: _523  and  _525
REMARK  218  A    between atoms: _525  and  _526
REMARK  219  A    between atoms: _525  and  _528
REMARK  220  A    between atoms: _528  and  _529
REMARK  221  A    between atoms: _529  and  _530
REMARK  222  A    between atoms: _533  and  _535
REMARK  223  A    between atoms: _535  and  _536
REMARK  224  A    between atoms: _535  and  _538
REMARK  225  A    between atoms: _538  and  _539
REMARK  226  A    between atoms: _542  and  _544
REMARK  227  A    between atoms: _544  and  _545
REMARK  228  A    between atoms: _544  and  _547
REMARK  229  A    between atoms: _547  and  _548
REMARK  230  A    between atoms: _551  and  _553
REMARK  231  A    between atoms: _553  and  _554
REMARK  232  A    between atoms: _553  and  _556
REMARK  233  A    between atoms: _556  and  _557
REMARK  234  A    between atoms: _563  and  _565
REMARK  235  A    between atoms: _565  and  _566
REMARK  236  A    between atoms: _569  and  _571
REMARK  237  A    between atoms: _571  and  _572
REMARK  238  A    between atoms: _571  and  _574
REMARK  239  A    between atoms: _574  and  _575
REMARK  240  A    between atoms: _578  and  _580
REMARK  241  A    between atoms: _580  and  _581
REMARK  242  A    between atoms: _580  and  _583
REMARK  243  A    between atoms: _583  and  _584
REMARK  244  A    between atoms: _589  and  _591
REMARK  245  A    between atoms: _591  and  _592
REMARK  246  A    between atoms: _591  and  _594
REMARK  247  A    between atoms: _594  and  _595
REMARK                            x       y       z     vdW  Elec       q    Type
REMARK                         _______ _______ _______ _____ _____    ______ ____
ROOT
ATOM      1  CG  TRP A   1      32.845 -10.947   8.503  0.00  0.00    -0.002 A 
ATOM      2  CD2 TRP A   1      33.056 -11.703   9.704  0.00  0.00    +0.013 A 
ATOM      3  CE3 TRP A   1      33.719 -11.445  10.914  0.00  0.00    +0.001 A 
ATOM      4  CZ3 TRP A   1      33.702 -12.418  11.903  0.00  0.00    +0.000 A 
ATOM      5  CH2 TRP A   1      32.992 -13.612  11.735  0.00  0.00    +0.001 A 
ATOM      6  CZ2 TRP A   1      32.329 -13.893  10.570  0.00  0.00    +0.017 A 
ATOM      7  CE2 TRP A   1      32.368 -12.928   9.556  0.00  0.00    +0.056 A 
ATOM      8  NE1 TRP A   1      31.805 -12.929   8.308  0.00  0.00    -0.352 N 
ATOM      9  HE1 TRP A   1      31.246 -13.704   7.898  0.00  0.00    +0.166 HD
ATOM     10  CD1 TRP A   1      32.099 -11.738   7.683  0.00  0.00    +0.068 A 
ENDROOT
BRANCH   1  11
ATOM     11  CB  TRP A   1      33.507  -9.645   8.141  0.00  0.00    +0.053 C 
BRANCH  11  12
ATOM     12  CA  TRP A   1      35.035  -9.826   8.017  0.00  0.00    +0.137 C 
BRANCH  12  13
ATOM     13  N   TRP A   1      35.744  -8.615   7.618  0.00  0.00    -0.239 NA
ATOM     14  H   TRP A   1      35.206  -7.730   7.517  0.00  0.00    +0.142 HD
ENDBRANCH  12  13
BRANCH  12  15
ATOM     15  C   TRP A   1      35.367 -11.072   7.155  0.00  0.00    +0.224 C 
ATOM     16  O   TRP A   1      35.711 -12.078   7.773  0.00  0.00    -0.287 OA
ENDBRANCH  12  15
ENDBRANCH  11  12
ENDBRANCH   1  11
TORSDOF 4
REMARK  Name = ../refined-set-2016/4q9o/4q9o_pocket.pdb
REMARK  247 active torsions:
REMARK  status: ('A' for Active; 'I' for Inactive)
REMARK    1  A    between atoms: _1  and  _3
REMARK    2  A    between atoms: _3  and  _4
REMARK    3  A    between atoms: _3  and  _6
REMARK    4  A    between atoms: _6  and  _7
REMARK    5  A    between atoms: _7  and  _8
REMARK    6  A    between atoms: _10  and  _12
REMARK    7  A    between atoms: _12  and  _13
REMARK    8  A    between atoms: _12  and  _15
REMARK    9  A    between atoms: _15  and  _16
REMARK   10  A    between atoms: _21  and  _23
REMARK   11  A    between atoms: _23  and  _24
REMARK   12  A    between atoms: _23  and  _26
REMARK   13  A    between atoms: _26  and  _27
REMARK   14  A    between atoms: _32  and  _34
REMARK   15  A    between atoms: _34  and  _35
REMARK   16  A    between atoms: _34  and  _37
REMARK   17  A    between atoms: _37  and  _38
REMARK   18  A    between atoms: _38  and  _39
REMARK   19  A    between atoms: _39  and  _40
REMARK   20  A    between atoms: _40  and  _41
REMARK   21  A    between atoms: _45  and  _47
REMARK   22  A    between atoms: _47  and  _48
REMARK   23  A    between atoms: _50  and  _52
REMARK   24  A    between atoms: _52  and  _53
REMARK   25  A    between atoms: _52  and  _55
REMARK   26  A    between atoms: _55  and  _56
REMARK   27  A    between atoms: _56  and  _57
REMARK   28  A    between atoms: _59  and  _61
REMARK   29  A    between atoms: _61  and  _62
REMARK   30  A    between atoms: _61  and  _64
REMARK   31  A    between atoms: _64  and  _65
REMARK   32  A    between atoms: _65  and  _66
REMARK   33  A    between atoms: _69  and  _71
REMARK   34  A    between atoms: _71  and  _72
REMARK   35  A    between atoms: _75  and  _77
REMARK   36  A    between atoms: _77  and  _78
REMARK   37  A    between atoms: _77  and  _80
REMARK   38  A    between atoms: _80  and  _81
REMARK   39  A    between atoms: _84  and  _86
REMARK   40  A    between atoms: _86  and  _87
REMARK   41  A    between atoms: _86  and  _89
REMARK   42  A    between atoms: _89  and  _90
REMARK   43  A    between atoms: _90  and  _91
REMARK   44  A    between atoms: _96  and  _98
REMARK   45  A    between atoms: _98  and  _99
REMARK   46  A    between atoms: _98  and  _101
REMARK   47  A    between atoms: _101  and  _102
REMARK   48  A    between atoms: _105  and  _107
REMARK   49  A    between atoms: _107  and  _108
REMARK   50  A    between atoms: _107  and  _110
REMARK   51  A    between atoms: _113  and  _115
REMARK   52  A    between atoms: _115  and  _116
REMARK   53  A    between atoms: _115  and  _118
REMARK   54  A    between atoms: _118  and  _119
REMARK   55  A    between atoms: _122  and  _124
REMARK   56  A    between atoms: _124  and  _125
REMARK   57  A    between atoms: _124  and  _127
REMARK   58  A    between atoms: _127  and  _128
REMARK   59  A    between atoms: _128  and  _129
REMARK   60  A    between atoms: _129  and  _130
REMARK   61  A    between atoms: _130  and  _131
REMARK   62  A    between atoms: _135  and  _137
REMARK   63  A    between atoms: _137  and  _138
REMARK   64  A    between atoms: _137  and  _140
REMARK   65  A    between atoms: _143  and  _145
REMARK   66  A    between atoms: _145  and  _146
REMARK   67  A    between atoms: _145  and  _148
REMARK   68  A    between atoms: _148  and  _149
REMARK   69  A    between atoms: _154  and  _155
REMARK   70  A    between atoms: _157  and  _159
REMARK   71  A    between atoms: _159  and  _160
REMARK   72  A    between atoms: _163  and  _165
REMARK   73  A    between atoms: _165  and  _166
REMARK   74  A    between atoms: _165  and  _168
REMARK   75  A    between atoms: _168  and  _169
REMARK   76  A    between atoms: _175  and  _177
REMARK   77  A    between atoms: _177  and  _178
REMARK   78  A    between atoms: _177  and  _180
REMARK   79  A    between atoms: _180  and  _181
REMARK   80  A    between atoms: _183  and  _185
REMARK   81  A    between atoms: _185  and  _186
REMARK   82  A    between atoms: _185  and  _188
REMARK   83  A    between atoms: _188  and  _189
REMARK   84  A    between atoms: _194  and  _196
REMARK   85  A    between atoms: _196  and  _197
REMARK   86  A    between atoms: _196  and  _199
REMARK   87  A    between atoms: _202  and  _204
REMARK   88  A    between atoms: _204  and  _205
REMARK   89  A    between atoms: _204  and  _207
REMARK   90  A    between atoms: _207  and  _208
REMARK   91  A    between atoms: _208  and  _209
REMARK   92  A    between atoms: _209  and  _210
REMARK   93  A    between atoms: _210  and  _211
REMARK   94  A    between atoms: _215  and  _217
REMARK   95  A    between atoms: _217  and  _218
REMARK   96  A    between atoms: _217  and  _220
REMARK   97  A    between atoms: _220  and  _221
REMARK   98  A    between atoms: _227  and  _229
REMARK   99  A    between atoms: _229  and  _230
REMARK  100  A    between atoms: _229  and  _232
REMARK  101  A    between atoms: _232  and  _233
REMARK  102  A    between atoms: _236  and  _238
REMARK  103  A    between atoms: _238  and  _239
REMARK  104  A    between atoms: _238  and  _241
REMARK  105  A    between atoms: _241  and  _242
REMARK  106  A    between atoms: _242  and  _243
REMARK  107  A    between atoms: _245  and  _247
REMARK  108  A    between atoms: _247  and  _248
REMARK  109  A    between atoms: _247  and  _250
REMARK  110  A    between atoms: _250  and  _251
REMARK  111  A    between atoms: _256  and  _258
REMARK  112  A    between atoms: _258  and  _259
REMARK  113  A    between atoms: _258  and  _261
REMARK  114  A    between atoms: _261  and  _262
REMARK  115  A    between atoms: _266  and  _267
REMARK  116  A    between atoms: _272  and  _274
REMARK  117  A    between atoms: _274  and  _275
REMARK  118  A    between atoms: _274  and  _277
REMARK  119  A    between atoms: _280  and  _282
REMARK  120  A    between atoms: _282  and  _283
REMARK  121  A    between atoms: _282  and  _285
REMARK  122  A    between atoms: _285  and  _286
REMARK  123  A    between atoms: _286  and  _287
REMARK  124  A    between atoms: _290  and  _292
REMARK  125  A    between atoms: _292  and  _293
REMARK  126  A    between atoms: _292  and  _295
REMARK  127  A    between atoms: _295  and  _296
REMARK  128  A    between atoms: _302  and  _304
REMARK  129  A    between atoms: _304  and  _305
REMARK  130  A    between atoms: _304  and  _307
REMARK  131  A    between atoms: _307  and  _308
REMARK  132  A    between atoms: _313  and  _314
REMARK  133  A    between atoms: _316  and  _318
REMARK  134  A    between atoms: _318  and  _319
REMARK  135  A    between atoms: _318  and  _321
REMARK  136  A    between atoms: _321  and  _322
REMARK  137  A    between atoms: _325  and  _327
REMARK  138  A    between atoms: _327  and  _328
REMARK  139  A    between atoms: _327  and  _330
REMARK  140  A    between atoms: _330  and  _331
REMARK  141  A    between atoms: _336  and  _338
REMARK  142  A    between atoms: _338  and  _339
REMARK  143  A    between atoms: _338  and  _341
REMARK  144  A    between atoms: _341  and  _342
REMARK  145  A    between atoms: _347  and  _348
REMARK  146  A    between atoms: _350  and  _352
REMARK  147  A    between atoms: _352  and  _353
REMARK  148  A    between atoms: _352  and  _355
REMARK  149  A    between atoms: _359  and  _360
REMARK  150  A    between atoms: _365  and  _367
REMARK  151  A    between atoms: _367  and  _368
REMARK  152  A    between atoms: _367  and  _370
REMARK  153  A    between atoms: _370  and  _371
REMARK  154  A    between atoms: _371  and  _372
REMARK  155  A    between atoms: _375  and  _377
REMARK  156  A    between atoms: _377  and  _378
REMARK  157  A    between atoms: _377  and  _380
REMARK  158  A    between atoms: _380  and  _381
REMARK  159  A    between atoms: _384  and  _386
REMARK  160  A    between atoms: _386  and  _387
REMARK  161  A    between atoms: _386  and  _389
REMARK  162  A    between atoms: _389  and  _390
REMARK  163  A    between atoms: _395  and  _397
REMARK  164  A    between atoms: _397  and  _398
REMARK  165  A    between atoms: _397  and  _400
REMARK  166  A    between atoms: _403  and  _405
REMARK  167  A    between atoms: _405  and  _406
REMARK  168  A    between atoms: _405  and  _408
REMARK  169  A    between atoms: _408  and  _409
REMARK  170  A    between atoms: _412  and  _414
REMARK  171  A    between atoms: _414  and  _415
REMARK  172  A    between atoms: _414  and  _417
REMARK  173  A    between atoms: _417  and  _418
REMARK  174  A    between atoms: _418  and  _419
REMARK  175  A    between atoms: _424  and  _426
REMARK  176  A    between atoms: _426  and  _427
REMARK  177  A    between atoms: _426  and  _429
REMARK  178  A    between atoms: _429  and  _430
REMARK  179  A    between atoms: _430  and  _431
REMARK  180  A    between atoms: _433  and  _435
REMARK  181  A    between atoms: _435  and  _436
REMARK  182  A    between atoms: _435  and  _438
REMARK  183  A    between atoms: _438  and  _439
REMARK  184  A    between atoms: _443  and  _444
REMARK  185  A    between atoms: _449  and  _451
REMARK  186  A    between atoms: _451  and  _452
REMARK  187  A    between atoms: _451  and  _454
REMARK  188  A    between atoms: _454  and  _455
REMARK  189  A    between atoms: _458  and  _460
REMARK  190  A    between atoms: _460  and  _461
REMARK  191  A    between atoms: _460  and  _463
REMARK  192  A    between atoms: _463  and  _464
REMARK  193  A    between atoms: _470  and  _472
REMARK  194  A    between atoms: _472  and  _473
REMARK  195  A    between atoms: _472  and  _475
REMARK  196  A    between atoms: _475  and  _476
REMARK  197  A    between atoms: _476  and  _477
REMARK  198  A    between atoms: _480  and  _482
REMARK  199  A    between atoms: _482  and  _483
REMARK  200  A    between atoms: _486  and  _488
REMARK  201  A    between atoms: _488  and  _489
REMARK  202  A    between atoms: _488  and  _491
REMARK  203  A    between atoms: _491  and  _492
REMARK  204  A    between atoms: _495  and  _497
REMARK  205  A    between atoms: _497  and  _498
REMARK  206  A    between atoms: _497  and  _500
REMARK  207  A    between atoms: _500  and  _501
REMARK  208  A    between atoms: _504  and  _506
REMARK  209  A    between atoms: _506  and  _507
REMARK  210  A    between atoms: _506  and  _509
REMARK  211  A    between atoms: _509  and  _510
REMARK  212  A    between atoms: _510  and  _511
REMARK  213  A    between atoms: _511  and  _512
REMARK  214  A    between atoms: _512  and  _513
REMARK  215  A    between atoms: _517  and  _519
REMARK  216  A    between atoms: _519  and  _520
REMARK  217  A    between atoms: _523  and  _525
REMARK  218  A    between atoms: _525  and  _526
REMARK  219  A    between atoms: _525  and  _528
REMARK  220  A    between atoms: _528  and  _529
REMARK  221  A    between atoms: _529  and  _530
REMARK  222  A    between atoms: _533  and  _535
REMARK  223  A    between atoms: _535  and  _536
REMARK  224  A    between atoms: _535  and  _538
REMARK  225  A    between atoms: _538  and  _539
REMARK  226  A    between atoms: _542  and  _544
REMARK  227  A    between atoms: _544  and  _545
REMARK  228  A    between atoms: _544  and  _547
REMARK  229  A    between atoms: _547  and  _548
REMARK  230  A    between atoms: _551  and  _553
REMARK  231  A    between atoms: _553  and  _554
REMARK  232  A    between atoms: _553  and  _556
REMARK  233  A    between atoms: _556  and  _557
REMARK  234  A    between atoms: _563  and  _565
REMARK  235  A    between atoms: _565  and  _566
REMARK  236  A    between atoms: _569  and  _571
REMARK  237  A    between atoms: _571  and  _572
REMARK  238  A    between atoms: _571  and  _574
REMARK  239  A    between atoms: _574  and  _575
REMARK  240  A    between atoms: _578  and  _580
REMARK  241  A    between atoms: _580  and  _581
REMARK  242  A    between atoms: _580  and  _583
REMARK  243  A    between atoms: _583  and  _584
REMARK  244  A    between atoms: _589  and  _591
REMARK  245  A    between atoms: _591  and  _592
REMARK  246  A    between atoms: _591  and  _594
REMARK  247  A    between atoms: _594  and  _595
REMARK                            x       y       z     vdW  Elec       q    Type
REMARK                         _______ _______ _______ _____ _____    ______ ____
ROOT
ATOM      1  O   HOH     1      27.170  -9.060   7.419  0.00  0.00    +0.000 OA
ENDROOT
TORSDOF 0
REMARK  Name = ../refined-set-2016/4q9o/4q9o_pocket.pdb
REMARK  247 active torsions:
REMARK  status: ('A' for Active; 'I' for Inactive)
REMARK    1  A    between atoms: _1  and  _3
REMARK    2  A    between atoms: _3  and  _4
REMARK    3  A    between atoms: _3  and  _6
REMARK    4  A    between atoms: _6  and  _7
REMARK    5  A    between atoms: _7  and  _8
REMARK    6  A    between atoms: _10  and  _12
REMARK    7  A    between atoms: _12  and  _13
REMARK    8  A    between atoms: _12  and  _15
REMARK    9  A    between atoms: _15  and  _16
REMARK   10  A    between atoms: _21  and  _23
REMARK   11  A    between atoms: _23  and  _24
REMARK   12  A    between atoms: _23  and  _26
REMARK   13  A    between atoms: _26  and  _27
REMARK   14  A    between atoms: _32  and  _34
REMARK   15  A    between atoms: _34  and  _35
REMARK   16  A    between atoms: _34  and  _37
REMARK   17  A    between atoms: _37  and  _38
REMARK   18  A    between atoms: _38  and  _39
REMARK   19  A    between atoms: _39  and  _40
REMARK   20  A    between atoms: _40  and  _41
REMARK   21  A    between atoms: _45  and  _47
REMARK   22  A    between atoms: _47  and  _48
REMARK   23  A    between atoms: _50  and  _52
REMARK   24  A    between atoms: _52  and  _53
REMARK   25  A    between atoms: _52  and  _55
REMARK   26  A    between atoms: _55  and  _56
REMARK   27  A    between atoms: _56  and  _57
REMARK   28  A    between atoms: _59  and  _61
REMARK   29  A    between atoms: _61  and  _62
REMARK   30  A    between atoms: _61  and  _64
REMARK   31  A    between atoms: _64  and  _65
REMARK   32  A    between atoms: _65  and  _66
REMARK   33  A    between atoms: _69  and  _71
REMARK   34  A    between atoms: _71  and  _72
REMARK   35  A    between atoms: _75  and  _77
REMARK   36  A    between atoms: _77  and  _78
REMARK   37  A    between atoms: _77  and  _80
REMARK   38  A    between atoms: _80  and  _81
REMARK   39  A    between atoms: _84  and  _86
REMARK   40  A    between atoms: _86  and  _87
REMARK   41  A    between atoms: _86  and  _89
REMARK   42  A    between atoms: _89  and  _90
REMARK   43  A    between atoms: _90  and  _91
REMARK   44  A    between atoms: _96  and  _98
REMARK   45  A    between atoms: _98  and  _99
REMARK   46  A    between atoms: _98  and  _101
REMARK   47  A    between atoms: _101  and  _102
REMARK   48  A    between atoms: _105  and  _107
REMARK   49  A    between atoms: _107  and  _108
REMARK   50  A    between atoms: _107  and  _110
REMARK   51  A    between atoms: _113  and  _115
REMARK   52  A    between atoms: _115  and  _116
REMARK   53  A    between atoms: _115  and  _118
REMARK   54  A    between atoms: _118  and  _119
REMARK   55  A    between atoms: _122  and  _124
REMARK   56  A    between atoms: _124  and  _125
REMARK   57  A    between atoms: _124  and  _127
REMARK   58  A    between atoms: _127  and  _128
REMARK   59  A    between atoms: _128  and  _129
REMARK   60  A    between atoms: _129  and  _130
REMARK   61  A    between atoms: _130  and  _131
REMARK   62  A    between atoms: _135  and  _137
REMARK   63  A    between atoms: _137  and  _138
REMARK   64  A    between atoms: _137  and  _140
REMARK   65  A    between atoms: _143  and  _145
REMARK   66  A    between atoms: _145  and  _146
REMARK   67  A    between atoms: _145  and  _148
REMARK   68  A    between atoms: _148  and  _149
REMARK   69  A    between atoms: _154  and  _155
REMARK   70  A    between atoms: _157  and  _159
REMARK   71  A    between atoms: _159  and  _160
REMARK   72  A    between atoms: _163  and  _165
REMARK   73  A    between atoms: _165  and  _166
REMARK   74  A    between atoms: _165  and  _168
REMARK   75  A    between atoms: _168  and  _169
REMARK   76  A    between atoms: _175  and  _177
REMARK   77  A    between atoms: _177  and  _178
REMARK   78  A    between atoms: _177  and  _180
REMARK   79  A    between atoms: _180  and  _181
REMARK   80  A    between atoms: _183  and  _185
REMARK   81  A    between atoms: _185  and  _186
REMARK   82  A    between atoms: _185  and  _188
REMARK   83  A    between atoms: _188  and  _189
REMARK   84  A    between atoms: _194  and  _196
REMARK   85  A    between atoms: _196  and  _197
REMARK   86  A    between atoms: _196  and  _199
REMARK   87  A    between atoms: _202  and  _204
REMARK   88  A    between atoms: _204  and  _205
REMARK   89  A    between atoms: _204  and  _207
REMARK   90  A    between atoms: _207  and  _208
REMARK   91  A    between atoms: _208  and  _209
REMARK   92  A    between atoms: _209  and  _210
REMARK   93  A    between atoms: _210  and  _211
REMARK   94  A    between atoms: _215  and  _217
REMARK   95  A    between atoms: _217  and  _218
REMARK   96  A    between atoms: _217  and  _220
REMARK   97  A    between atoms: _220  and  _221
REMARK   98  A    between atoms: _227  and  _229
REMARK   99  A    between atoms: _229  and  _230
REMARK  100  A    between atoms: _229  and  _232
REMARK  101  A    between atoms: _232  and  _233
REMARK  102  A    between atoms: _236  and  _238
REMARK  103  A    between atoms: _238  and  _239
REMARK  104  A    between atoms: _238  and  _241
REMARK  105  A    between atoms: _241  and  _242
REMARK  106  A    between atoms: _242  and  _243
REMARK  107  A    between atoms: _245  and  _247
REMARK  108  A    between atoms: _247  and  _248
REMARK  109  A    between atoms: _247  and  _250
REMARK  110  A    between atoms: _250  and  _251
REMARK  111  A    between atoms: _256  and  _258
REMARK  112  A    between atoms: _258  and  _259
REMARK  113  A    between atoms: _258  and  _261
REMARK  114  A    between atoms: _261  and  _262
REMARK  115  A    between atoms: _266  and  _267
REMARK  116  A    between atoms: _272  and  _274
REMARK  117  A    between atoms: _274  and  _275
REMARK  118  A    between atoms: _274  and  _277
REMARK  119  A    between atoms: _280  and  _282
REMARK  120  A    between atoms: _282  and  _283
REMARK  121  A    between atoms: _282  and  _285
REMARK  122  A    between atoms: _285  and  _286
REMARK  123  A    between atoms: _286  and  _287
REMARK  124  A    between atoms: _290  and  _292
REMARK  125  A    between atoms: _292  and  _293
REMARK  126  A    between atoms: _292  and  _295
REMARK  127  A    between atoms: _295  and  _296
REMARK  128  A    between atoms: _302  and  _304
REMARK  129  A    between atoms: _304  and  _305
REMARK  130  A    between atoms: _304  and  _307
REMARK  131  A    between atoms: _307  and  _308
REMARK  132  A    between atoms: _313  and  _314
REMARK  133  A    between atoms: _316  and  _318
REMARK  134  A    between atoms: _318  and  _319
REMARK  135  A    between atoms: _318  and  _321
REMARK  136  A    between atoms: _321  and  _322
REMARK  137  A    between atoms: _325  and  _327
REMARK  138  A    between atoms: _327  and  _328
REMARK  139  A    between atoms: _327  and  _330
REMARK  140  A    between atoms: _330  and  _331
REMARK  141  A    between atoms: _336  and  _338
REMARK  142  A    between atoms: _338  and  _339
REMARK  143  A    between atoms: _338  and  _341
REMARK  144  A    between atoms: _341  and  _342
REMARK  145  A    between atoms: _347  and  _348
REMARK  146  A    between atoms: _350  and  _352
REMARK  147  A    between atoms: _352  and  _353
REMARK  148  A    between atoms: _352  and  _355
REMARK  149  A    between atoms: _359  and  _360
REMARK  150  A    between atoms: _365  and  _367
REMARK  151  A    between atoms: _367  and  _368
REMARK  152  A    between atoms: _367  and  _370
REMARK  153  A    between atoms: _370  and  _371
REMARK  154  A    between atoms: _371  and  _372
REMARK  155  A    between atoms: _375  and  _377
REMARK  156  A    between atoms: _377  and  _378
REMARK  157  A    between atoms: _377  and  _380
REMARK  158  A    between atoms: _380  and  _381
REMARK  159  A    between atoms: _384  and  _386
REMARK  160  A    between atoms: _386  and  _387
REMARK  161  A    between atoms: _386  and  _389
REMARK  162  A    between atoms: _389  and  _390
REMARK  163  A    between atoms: _395  and  _397
REMARK  164  A    between atoms: _397  and  _398
REMARK  165  A    between atoms: _397  and  _400
REMARK  166  A    between atoms: _403  and  _405
REMARK  167  A    between atoms: _405  and  _406
REMARK  168  A    between atoms: _405  and  _408
REMARK  169  A    between atoms: _408  and  _409
REMARK  170  A    between atoms: _412  and  _414
REMARK  171  A    between atoms: _414  and  _415
REMARK  172  A    between atoms: _414  and  _417
REMARK  173  A    between atoms: _417  and  _418
REMARK  174  A    between atoms: _418  and  _419
REMARK  175  A    between atoms: _424  and  _426
REMARK  176  A    between atoms: _426  and  _427
REMARK  177  A    between atoms: _426  and  _429
REMARK  178  A    between atoms: _429  and  _430
REMARK  179  A    between atoms: _430  and  _431
REMARK  180  A    between atoms: _433  and  _435
REMARK  181  A    between atoms: _435  and  _436
REMARK  182  A    between atoms: _435  and  _438
REMARK  183  A    between atoms: _438  and  _439
REMARK  184  A    between atoms: _443  and  _444
REMARK  185  A    between atoms: _449  and  _451
REMARK  186  A    between atoms: _451  and  _452
REMARK  187  A    between atoms: _451  and  _454
REMARK  188  A    between atoms: _454  and  _455
REMARK  189  A    between atoms: _458  and  _460
REMARK  190  A    between atoms: _460  and  _461
REMARK  191  A    between atoms: _460  and  _463
REMARK  192  A    between atoms: _463  and  _464
REMARK  193  A    between atoms: _470  and  _472
REMARK  194  A    between atoms: _472  and  _473
REMARK  195  A    between atoms: _472  and  _475
REMARK  196  A    between atoms: _475  and  _476
REMARK  197  A    between atoms: _476  and  _477
REMARK  198  A    between atoms: _480  and  _482
REMARK  199  A    between atoms: _482  and  _483
REMARK  200  A    between atoms: _486  and  _488
REMARK  201  A    between atoms: _488  and  _489
REMARK  202  A    between atoms: _488  and  _491
REMARK  203  A    between atoms: _491  and  _492
REMARK  204  A    between atoms: _495  and  _497
REMARK  205  A    between atoms: _497  and  _498
REMARK  206  A    between atoms: _497  and  _500
REMARK  207  A    between atoms: _500  and  _501
REMARK  208  A    between atoms: _504  and  _506
REMARK  209  A    between atoms: _506  and  _507
REMARK  210  A    between atoms: _506  and  _509
REMARK  211  A    between atoms: _509  and  _510
REMARK  212  A    between atoms: _510  and  _511
REMARK  213  A    between atoms: _511  and  _512
REMARK  214  A    between atoms: _512  and  _513
REMARK  215  A    between atoms: _517  and  _519
REMARK  216  A    between atoms: _519  and  _520
REMARK  217  A    between atoms: _523  and  _525
REMARK  218  A    between atoms: _525  and  _526
REMARK  219  A    between atoms: _525  and  _528
REMARK  220  A    between atoms: _528  and  _529
REMARK  221  A    between atoms: _529  and  _530
REMARK  222  A    between atoms: _533  and  _535
REMARK  223  A    between atoms: _535  and  _536
REMARK  224  A    between atoms: _535  and  _538
REMARK  225  A    between atoms: _538  and  _539
REMARK  226  A    between atoms: _542  and  _544
REMARK  227  A    between atoms: _544  and  _545
REMARK  228  A    between atoms: _544  and  _547
REMARK  229  A    between atoms: _547  and  _548
REMARK  230  A    between atoms: _551  and  _553
REMARK  231  A    between atoms: _553  and  _554
REMARK  232  A    between atoms: _553  and  _556
REMARK  233  A    between atoms: _556  and  _557
REMARK  234  A    between atoms: _563  and  _565
REMARK  235  A    between atoms: _565  and  _566
REMARK  236  A    between atoms: _569  and  _571
REMARK  237  A    between atoms: _571  and  _572
REMARK  238  A    between atoms: _571  and  _574
REMARK  239  A    between atoms: _574  and  _575
REMARK  240  A    between atoms: _578  and  _580
REMARK  241  A    between atoms: _580  and  _581
REMARK  242  A    between atoms: _580  and  _583
REMARK  243  A    between atoms: _583  and  _584
REMARK  244  A    between atoms: _589  and  _591
REMARK  245  A    between atoms: _591  and  _592
REMARK  246  A    between atoms: _591  and  _594
REMARK  247  A    between atoms: _594  and  _595
REMARK                            x       y       z     vdW  Elec       q    Type
REMARK                         _______ _______ _______ _____ _____    ______ ____
ROOT
ATOM      1  O   HOH     1      20.799 -25.095  -0.767  0.00  0.00    +0.000 OA
ENDROOT
TORSDOF 0
REMARK  Name = ../refined-set-2016/4q9o/4q9o_pocket.pdb
REMARK  247 active torsions:
REMARK  status: ('A' for Active; 'I' for Inactive)
REMARK    1  A    between atoms: _1  and  _3
REMARK    2  A    between atoms: _3  and  _4
REMARK    3  A    between atoms: _3  and  _6
REMARK    4  A    between atoms: _6  and  _7
REMARK    5  A    between atoms: _7  and  _8
REMARK    6  A    between atoms: _10  and  _12
REMARK    7  A    between atoms: _12  and  _13
REMARK    8  A    between atoms: _12  and  _15
REMARK    9  A    between atoms: _15  and  _16
REMARK   10  A    between atoms: _21  and  _23
REMARK   11  A    between atoms: _23  and  _24
REMARK   12  A    between atoms: _23  and  _26
REMARK   13  A    between atoms: _26  and  _27
REMARK   14  A    between atoms: _32  and  _34
REMARK   15  A    between atoms: _34  and  _35
REMARK   16  A    between atoms: _34  and  _37
REMARK   17  A    between atoms: _37  and  _38
REMARK   18  A    between atoms: _38  and  _39
REMARK   19  A    between atoms: _39  and  _40
REMARK   20  A    between atoms: _40  and  _41
REMARK   21  A    between atoms: _45  and  _47
REMARK   22  A    between atoms: _47  and  _48
REMARK   23  A    between atoms: _50  and  _52
REMARK   24  A    between atoms: _52  and  _53
REMARK   25  A    between atoms: _52  and  _55
REMARK   26  A    between atoms: _55  and  _56
REMARK   27  A    between atoms: _56  and  _57
REMARK   28  A    between atoms: _59  and  _61
REMARK   29  A    between atoms: _61  and  _62
REMARK   30  A    between atoms: _61  and  _64
REMARK   31  A    between atoms: _64  and  _65
REMARK   32  A    between atoms: _65  and  _66
REMARK   33  A    between atoms: _69  and  _71
REMARK   34  A    between atoms: _71  and  _72
REMARK   35  A    between atoms: _75  and  _77
REMARK   36  A    between atoms: _77  and  _78
REMARK   37  A    between atoms: _77  and  _80
REMARK   38  A    between atoms: _80  and  _81
REMARK   39  A    between atoms: _84  and  _86
REMARK   40  A    between atoms: _86  and  _87
REMARK   41  A    between atoms: _86  and  _89
REMARK   42  A    between atoms: _89  and  _90
REMARK   43  A    between atoms: _90  and  _91
REMARK   44  A    between atoms: _96  and  _98
REMARK   45  A    between atoms: _98  and  _99
REMARK   46  A    between atoms: _98  and  _101
REMARK   47  A    between atoms: _101  and  _102
REMARK   48  A    between atoms: _105  and  _107
REMARK   49  A    between atoms: _107  and  _108
REMARK   50  A    between atoms: _107  and  _110
REMARK   51  A    between atoms: _113  and  _115
REMARK   52  A    between atoms: _115  and  _116
REMARK   53  A    between atoms: _115  and  _118
REMARK   54  A    between atoms: _118  and  _119
REMARK   55  A    between atoms: _122  and  _124
REMARK   56  A    between atoms: _124  and  _125
REMARK   57  A    between atoms: _124  and  _127
REMARK   58  A    between atoms: _127  and  _128
REMARK   59  A    between atoms: _128  and  _129
REMARK   60  A    between atoms: _129  and  _130
REMARK   61  A    between atoms: _130  and  _131
REMARK   62  A    between atoms: _135  and  _137
REMARK   63  A    between atoms: _137  and  _138
REMARK   64  A    between atoms: _137  and  _140
REMARK   65  A    between atoms: _143  and  _145
REMARK   66  A    between atoms: _145  and  _146
REMARK   67  A    between atoms: _145  and  _148
REMARK   68  A    between atoms: _148  and  _149
REMARK   69  A    between atoms: _154  and  _155
REMARK   70  A    between atoms: _157  and  _159
REMARK   71  A    between atoms: _159  and  _160
REMARK   72  A    between atoms: _163  and  _165
REMARK   73  A    between atoms: _165  and  _166
REMARK   74  A    between atoms: _165  and  _168
REMARK   75  A    between atoms: _168  and  _169
REMARK   76  A    between atoms: _175  and  _177
REMARK   77  A    between atoms: _177  and  _178
REMARK   78  A    between atoms: _177  and  _180
REMARK   79  A    between atoms: _180  and  _181
REMARK   80  A    between atoms: _183  and  _185
REMARK   81  A    between atoms: _185  and  _186
REMARK   82  A    between atoms: _185  and  _188
REMARK   83  A    between atoms: _188  and  _189
REMARK   84  A    between atoms: _194  and  _196
REMARK   85  A    between atoms: _196  and  _197
REMARK   86  A    between atoms: _196  and  _199
REMARK   87  A    between atoms: _202  and  _204
REMARK   88  A    between atoms: _204  and  _205
REMARK   89  A    between atoms: _204  and  _207
REMARK   90  A    between atoms: _207  and  _208
REMARK   91  A    between atoms: _208  and  _209
REMARK   92  A    between atoms: _209  and  _210
REMARK   93  A    between atoms: _210  and  _211
REMARK   94  A    between atoms: _215  and  _217
REMARK   95  A    between atoms: _217  and  _218
REMARK   96  A    between atoms: _217  and  _220
REMARK   97  A    between atoms: _220  and  _221
REMARK   98  A    between atoms: _227  and  _229
REMARK   99  A    between atoms: _229  and  _230
REMARK  100  A    between atoms: _229  and  _232
REMARK  101  A    between atoms: _232  and  _233
REMARK  102  A    between atoms: _236  and  _238
REMARK  103  A    between atoms: _238  and  _239
REMARK  104  A    between atoms: _238  and  _241
REMARK  105  A    between atoms: _241  and  _242
REMARK  106  A    between atoms: _242  and  _243
REMARK  107  A    between atoms: _245  and  _247
REMARK  108  A    between atoms: _247  and  _248
REMARK  109  A    between atoms: _247  and  _250
REMARK  110  A    between atoms: _250  and  _251
REMARK  111  A    between atoms: _256  and  _258
REMARK  112  A    between atoms: _258  and  _259
REMARK  113  A    between atoms: _258  and  _261
REMARK  114  A    between atoms: _261  and  _262
REMARK  115  A    between atoms: _266  and  _267
REMARK  116  A    between atoms: _272  and  _274
REMARK  117  A    between atoms: _274  and  _275
REMARK  118  A    between atoms: _274  and  _277
REMARK  119  A    between atoms: _280  and  _282
REMARK  120  A    between atoms: _282  and  _283
REMARK  121  A    between atoms: _282  and  _285
REMARK  122  A    between atoms: _285  and  _286
REMARK  123  A    between atoms: _286  and  _287
REMARK  124  A    between atoms: _290  and  _292
REMARK  125  A    between atoms: _292  and  _293
REMARK  126  A    between atoms: _292  and  _295
REMARK  127  A    between atoms: _295  and  _296
REMARK  128  A    between atoms: _302  and  _304
REMARK  129  A    between atoms: _304  and  _305
REMARK  130  A    between atoms: _304  and  _307
REMARK  131  A    between atoms: _307  and  _308
REMARK  132  A    between atoms: _313  and  _314
REMARK  133  A    between atoms: _316  and  _318
REMARK  134  A    between atoms: _318  and  _319
REMARK  135  A    between atoms: _318  and  _321
REMARK  136  A    between atoms: _321  and  _322
REMARK  137  A    between atoms: _325  and  _327
REMARK  138  A    between atoms: _327  and  _328
REMARK  139  A    between atoms: _327  and  _330
REMARK  140  A    between atoms: _330  and  _331
REMARK  141  A    between atoms: _336  and  _338
REMARK  142  A    between atoms: _338  and  _339
REMARK  143  A    between atoms: _338  and  _341
REMARK  144  A    between atoms: _341  and  _342
REMARK  145  A    between atoms: _347  and  _348
REMARK  146  A    between atoms: _350  and  _352
REMARK  147  A    between atoms: _352  and  _353
REMARK  148  A    between atoms: _352  and  _355
REMARK  149  A    between atoms: _359  and  _360
REMARK  150  A    between atoms: _365  and  _367
REMARK  151  A    between atoms: _367  and  _368
REMARK  152  A    between atoms: _367  and  _370
REMARK  153  A    between atoms: _370  and  _371
REMARK  154  A    between atoms: _371  and  _372
REMARK  155  A    between atoms: _375  and  _377
REMARK  156  A    between atoms: _377  and  _378
REMARK  157  A    between atoms: _377  and  _380
REMARK  158  A    between atoms: _380  and  _381
REMARK  159  A    between atoms: _384  and  _386
REMARK  160  A    between atoms: _386  and  _387
REMARK  161  A    between atoms: _386  and  _389
REMARK  162  A    between atoms: _389  and  _390
REMARK  163  A    between atoms: _395  and  _397
REMARK  164  A    between atoms: _397  and  _398
REMARK  165  A    between atoms: _397  and  _400
REMARK  166  A    between atoms: _403  and  _405
REMARK  167  A    between atoms: _405  and  _406
REMARK  168  A    between atoms: _405  and  _408
REMARK  169  A    between atoms: _408  and  _409
REMARK  170  A    between atoms: _412  and  _414
REMARK  171  A    between atoms: _414  and  _415
REMARK  172  A    between atoms: _414  and  _417
REMARK  173  A    between atoms: _417  and  _418
REMARK  174  A    between atoms: _418  and  _419
REMARK  175  A    between atoms: _424  and  _426
REMARK  176  A    between atoms: _426  and  _427
REMARK  177  A    between atoms: _426  and  _429
REMARK  178  A    between atoms: _429  and  _430
REMARK  179  A    between atoms: _430  and  _431
REMARK  180  A    between atoms: _433  and  _435
REMARK  181  A    between atoms: _435  and  _436
REMARK  182  A    between atoms: _435  and  _438
REMARK  183  A    between atoms: _438  and  _439
REMARK  184  A    between atoms: _443  and  _444
REMARK  185  A    between atoms: _449  and  _451
REMARK  186  A    between atoms: _451  and  _452
REMARK  187  A    between atoms: _451  and  _454
REMARK  188  A    between atoms: _454  and  _455
REMARK  189  A    between atoms: _458  and  _460
REMARK  190  A    between atoms: _460  and  _461
REMARK  191  A    between atoms: _460  and  _463
REMARK  192  A    between atoms: _463  and  _464
REMARK  193  A    between atoms: _470  and  _472
REMARK  194  A    between atoms: _472  and  _473
REMARK  195  A    between atoms: _472  and  _475
REMARK  196  A    between atoms: _475  and  _476
REMARK  197  A    between atoms: _476  and  _477
REMARK  198  A    between atoms: _480  and  _482
REMARK  199  A    between atoms: _482  and  _483
REMARK  200  A    between atoms: _486  and  _488
REMARK  201  A    between atoms: _488  and  _489
REMARK  202  A    between atoms: _488  and  _491
REMARK  203  A    between atoms: _491  and  _492
REMARK  204  A    between atoms: _495  and  _497
REMARK  205  A    between atoms: _497  and  _498
REMARK  206  A    between atoms: _497  and  _500
REMARK  207  A    between atoms: _500  and  _501
REMARK  208  A    between atoms: _504  and  _506
REMARK  209  A    between atoms: _506  and  _507
REMARK  210  A    between atoms: _506  and  _509
REMARK  211  A    between atoms: _509  and  _510
REMARK  212  A    between atoms: _510  and  _511
REMARK  213  A    between atoms: _511  and  _512
REMARK  214  A    between atoms: _512  and  _513
REMARK  215  A    between atoms: _517  and  _519
REMARK  216  A    between atoms: _519  and  _520
REMARK  217  A    between atoms: _523  and  _525
REMARK  218  A    between atoms: _525  and  _526
REMARK  219  A    between atoms: _525  and  _528
REMARK  220  A    between atoms: _528  and  _529
REMARK  221  A    between atoms: _529  and  _530
REMARK  222  A    between atoms: _533  and  _535
REMARK  223  A    between atoms: _535  and  _536
REMARK  224  A    between atoms: _535  and  _538
REMARK  225  A    between atoms: _538  and  _539
REMARK  226  A    between atoms: _542  and  _544
REMARK  227  A    between atoms: _544  and  _545
REMARK  228  A    between atoms: _544  and  _547
REMARK  229  A    between atoms: _547  and  _548
REMARK  230  A    between atoms: _551  and  _553
REMARK  231  A    between atoms: _553  and  _554
REMARK  232  A    between atoms: _553  and  _556
REMARK  233  A    between atoms: _556  and  _557
REMARK  234  A    between atoms: _563  and  _565
REMARK  235  A    between atoms: _565  and  _566
REMARK  236  A    between atoms: _569  and  _571
REMARK  237  A    between atoms: _571  and  _572
REMARK  238  A    between atoms: _571  and  _574
REMARK  239  A    between atoms: _574  and  _575
REMARK  240  A    between atoms: _578  and  _580
REMARK  241  A    between atoms: _580  and  _581
REMARK  242  A    between atoms: _580  and  _583
REMARK  243  A    between atoms: _583  and  _584
REMARK  244  A    between atoms: _589  and  _591
REMARK  245  A    between atoms: _591  and  _592
REMARK  246  A    between atoms: _591  and  _594
REMARK  247  A    between atoms: _594  and  _595
REMARK                            x       y       z     vdW  Elec       q    Type
REMARK                         _______ _______ _______ _____ _____    ______ ____
ROOT
ATOM      1  O   HOH     1      14.566 -14.289   0.100  0.00  0.00    +0.000 OA
ENDROOT
TORSDOF 0
REMARK  Name = ../refined-set-2016/4q9o/4q9o_pocket.pdb
REMARK  247 active torsions:
REMARK  status: ('A' for Active; 'I' for Inactive)
REMARK    1  A    between atoms: _1  and  _3
REMARK    2  A    between atoms: _3  and  _4
REMARK    3  A    between atoms: _3  and  _6
REMARK    4  A    between atoms: _6  and  _7
REMARK    5  A    between atoms: _7  and  _8
REMARK    6  A    between atoms: _10  and  _12
REMARK    7  A    between atoms: _12  and  _13
REMARK    8  A    between atoms: _12  and  _15
REMARK    9  A    between atoms: _15  and  _16
REMARK   10  A    between atoms: _21  and  _23
REMARK   11  A    between atoms: _23  and  _24
REMARK   12  A    between atoms: _23  and  _26
REMARK   13  A    between atoms: _26  and  _27
REMARK   14  A    between atoms: _32  and  _34
REMARK   15  A    between atoms: _34  and  _35
REMARK   16  A    between atoms: _34  and  _37
REMARK   17  A    between atoms: _37  and  _38
REMARK   18  A    between atoms: _38  and  _39
REMARK   19  A    between atoms: _39  and  _40
REMARK   20  A    between atoms: _40  and  _41
REMARK   21  A    between atoms: _45  and  _47
REMARK   22  A    between atoms: _47  and  _48
REMARK   23  A    between atoms: _50  and  _52
REMARK   24  A    between atoms: _52  and  _53
REMARK   25  A    between atoms: _52  and  _55
REMARK   26  A    between atoms: _55  and  _56
REMARK   27  A    between atoms: _56  and  _57
REMARK   28  A    between atoms: _59  and  _61
REMARK   29  A    between atoms: _61  and  _62
REMARK   30  A    between atoms: _61  and  _64
REMARK   31  A    between atoms: _64  and  _65
REMARK   32  A    between atoms: _65  and  _66
REMARK   33  A    between atoms: _69  and  _71
REMARK   34  A    between atoms: _71  and  _72
REMARK   35  A    between atoms: _75  and  _77
REMARK   36  A    between atoms: _77  and  _78
REMARK   37  A    between atoms: _77  and  _80
REMARK   38  A    between atoms: _80  and  _81
REMARK   39  A    between atoms: _84  and  _86
REMARK   40  A    between atoms: _86  and  _87
REMARK   41  A    between atoms: _86  and  _89
REMARK   42  A    between atoms: _89  and  _90
REMARK   43  A    between atoms: _90  and  _91
REMARK   44  A    between atoms: _96  and  _98
REMARK   45  A    between atoms: _98  and  _99
REMARK   46  A    between atoms: _98  and  _101
REMARK   47  A    between atoms: _101  and  _102
REMARK   48  A    between atoms: _105  and  _107
REMARK   49  A    between atoms: _107  and  _108
REMARK   50  A    between atoms: _107  and  _110
REMARK   51  A    between atoms: _113  and  _115
REMARK   52  A    between atoms: _115  and  _116
REMARK   53  A    between atoms: _115  and  _118
REMARK   54  A    between atoms: _118  and  _119
REMARK   55  A    between atoms: _122  and  _124
REMARK   56  A    between atoms: _124  and  _125
REMARK   57  A    between atoms: _124  and  _127
REMARK   58  A    between atoms: _127  and  _128
REMARK   59  A    between atoms: _128  and  _129
REMARK   60  A    between atoms: _129  and  _130
REMARK   61  A    between atoms: _130  and  _131
REMARK   62  A    between atoms: _135  and  _137
REMARK   63  A    between atoms: _137  and  _138
REMARK   64  A    between atoms: _137  and  _140
REMARK   65  A    between atoms: _143  and  _145
REMARK   66  A    between atoms: _145  and  _146
REMARK   67  A    between atoms: _145  and  _148
REMARK   68  A    between atoms: _148  and  _149
REMARK   69  A    between atoms: _154  and  _155
REMARK   70  A    between atoms: _157  and  _159
REMARK   71  A    between atoms: _159  and  _160
REMARK   72  A    between atoms: _163  and  _165
REMARK   73  A    between atoms: _165  and  _166
REMARK   74  A    between atoms: _165  and  _168
REMARK   75  A    between atoms: _168  and  _169
REMARK   76  A    between atoms: _175  and  _177
REMARK   77  A    between atoms: _177  and  _178
REMARK   78  A    between atoms: _177  and  _180
REMARK   79  A    between atoms: _180  and  _181
REMARK   80  A    between atoms: _183  and  _185
REMARK   81  A    between atoms: _185  and  _186
REMARK   82  A    between atoms: _185  and  _188
REMARK   83  A    between atoms: _188  and  _189
REMARK   84  A    between atoms: _194  and  _196
REMARK   85  A    between atoms: _196  and  _197
REMARK   86  A    between atoms: _196  and  _199
REMARK   87  A    between atoms: _202  and  _204
REMARK   88  A    between atoms: _204  and  _205
REMARK   89  A    between atoms: _204  and  _207
REMARK   90  A    between atoms: _207  and  _208
REMARK   91  A    between atoms: _208  and  _209
REMARK   92  A    between atoms: _209  and  _210
REMARK   93  A    between atoms: _210  and  _211
REMARK   94  A    between atoms: _215  and  _217
REMARK   95  A    between atoms: _217  and  _218
REMARK   96  A    between atoms: _217  and  _220
REMARK   97  A    between atoms: _220  and  _221
REMARK   98  A    between atoms: _227  and  _229
REMARK   99  A    between atoms: _229  and  _230
REMARK  100  A    between atoms: _229  and  _232
REMARK  101  A    between atoms: _232  and  _233
REMARK  102  A    between atoms: _236  and  _238
REMARK  103  A    between atoms: _238  and  _239
REMARK  104  A    between atoms: _238  and  _241
REMARK  105  A    between atoms: _241  and  _242
REMARK  106  A    between atoms: _242  and  _243
REMARK  107  A    between atoms: _245  and  _247
REMARK  108  A    between atoms: _247  and  _248
REMARK  109  A    between atoms: _247  and  _250
REMARK  110  A    between atoms: _250  and  _251
REMARK  111  A    between atoms: _256  and  _258
REMARK  112  A    between atoms: _258  and  _259
REMARK  113  A    between atoms: _258  and  _261
REMARK  114  A    between atoms: _261  and  _262
REMARK  115  A    between atoms: _266  and  _267
REMARK  116  A    between atoms: _272  and  _274
REMARK  117  A    between atoms: _274  and  _275
REMARK  118  A    between atoms: _274  and  _277
REMARK  119  A    between atoms: _280  and  _282
REMARK  120  A    between atoms: _282  and  _283
REMARK  121  A    between atoms: _282  and  _285
REMARK  122  A    between atoms: _285  and  _286
REMARK  123  A    between atoms: _286  and  _287
REMARK  124  A    between atoms: _290  and  _292
REMARK  125  A    between atoms: _292  and  _293
REMARK  126  A    between atoms: _292  and  _295
REMARK  127  A    between atoms: _295  and  _296
REMARK  128  A    between atoms: _302  and  _304
REMARK  129  A    between atoms: _304  and  _305
REMARK  130  A    between atoms: _304  and  _307
REMARK  131  A    between atoms: _307  and  _308
REMARK  132  A    between atoms: _313  and  _314
REMARK  133  A    between atoms: _316  and  _318
REMARK  134  A    between atoms: _318  and  _319
REMARK  135  A    between atoms: _318  and  _321
REMARK  136  A    between atoms: _321  and  _322
REMARK  137  A    between atoms: _325  and  _327
REMARK  138  A    between atoms: _327  and  _328
REMARK  139  A    between atoms: _327  and  _330
REMARK  140  A    between atoms: _330  and  _331
REMARK  141  A    between atoms: _336  and  _338
REMARK  142  A    between atoms: _338  and  _339
REMARK  143  A    between atoms: _338  and  _341
REMARK  144  A    between atoms: _341  and  _342
REMARK  145  A    between atoms: _347  and  _348
REMARK  146  A    between atoms: _350  and  _352
REMARK  147  A    between atoms: _352  and  _353
REMARK  148  A    between atoms: _352  and  _355
REMARK  149  A    between atoms: _359  and  _360
REMARK  150  A    between atoms: _365  and  _367
REMARK  151  A    between atoms: _367  and  _368
REMARK  152  A    between atoms: _367  and  _370
REMARK  153  A    between atoms: _370  and  _371
REMARK  154  A    between atoms: _371  and  _372
REMARK  155  A    between atoms: _375  and  _377
REMARK  156  A    between atoms: _377  and  _378
REMARK  157  A    between atoms: _377  and  _380
REMARK  158  A    between atoms: _380  and  _381
REMARK  159  A    between atoms: _384  and  _386
REMARK  160  A    between atoms: _386  and  _387
REMARK  161  A    between atoms: _386  and  _389
REMARK  162  A    between atoms: _389  and  _390
REMARK  163  A    between atoms: _395  and  _397
REMARK  164  A    between atoms: _397  and  _398
REMARK  165  A    between atoms: _397  and  _400
REMARK  166  A    between atoms: _403  and  _405
REMARK  167  A    between atoms: _405  and  _406
REMARK  168  A    between atoms: _405  and  _408
REMARK  169  A    between atoms: _408  and  _409
REMARK  170  A    between atoms: _412  and  _414
REMARK  171  A    between atoms: _414  and  _415
REMARK  172  A    between atoms: _414  and  _417
REMARK  173  A    between atoms: _417  and  _418
REMARK  174  A    between atoms: _418  and  _419
REMARK  175  A    between atoms: _424  and  _426
REMARK  176  A    between atoms: _426  and  _427
REMARK  177  A    between atoms: _426  and  _429
REMARK  178  A    between atoms: _429  and  _430
REMARK  179  A    between atoms: _430  and  _431
REMARK  180  A    between atoms: _433  and  _435
REMARK  181  A    between atoms: _435  and  _436
REMARK  182  A    between atoms: _435  and  _438
REMARK  183  A    between atoms: _438  and  _439
REMARK  184  A    between atoms: _443  and  _444
REMARK  185  A    between atoms: _449  and  _451
REMARK  186  A    between atoms: _451  and  _452
REMARK  187  A    between atoms: _451  and  _454
REMARK  188  A    between atoms: _454  and  _455
REMARK  189  A    between atoms: _458  and  _460
REMARK  190  A    between atoms: _460  and  _461
REMARK  191  A    between atoms: _460  and  _463
REMARK  192  A    between atoms: _463  and  _464
REMARK  193  A    between atoms: _470  and  _472
REMARK  194  A    between atoms: _472  and  _473
REMARK  195  A    between atoms: _472  and  _475
REMARK  196  A    between atoms: _475  and  _476
REMARK  197  A    between atoms: _476  and  _477
REMARK  198  A    between atoms: _480  and  _482
REMARK  199  A    between atoms: _482  and  _483
REMARK  200  A    between atoms: _486  and  _488
REMARK  201  A    between atoms: _488  and  _489
REMARK  202  A    between atoms: _488  and  _491
REMARK  203  A    between atoms: _491  and  _492
REMARK  204  A    between atoms: _495  and  _497
REMARK  205  A    between atoms: _497  and  _498
REMARK  206  A    between atoms: _497  and  _500
REMARK  207  A    between atoms: _500  and  _501
REMARK  208  A    between atoms: _504  and  _506
REMARK  209  A    between atoms: _506  and  _507
REMARK  210  A    between atoms: _506  and  _509
REMARK  211  A    between atoms: _509  and  _510
REMARK  212  A    between atoms: _510  and  _511
REMARK  213  A    between atoms: _511  and  _512
REMARK  214  A    between atoms: _512  and  _513
REMARK  215  A    between atoms: _517  and  _519
REMARK  216  A    between atoms: _519  and  _520
REMARK  217  A    between atoms: _523  and  _525
REMARK  218  A    between atoms: _525  and  _526
REMARK  219  A    between atoms: _525  and  _528
REMARK  220  A    between atoms: _528  and  _529
REMARK  221  A    between atoms: _529  and  _530
REMARK  222  A    between atoms: _533  and  _535
REMARK  223  A    between atoms: _535  and  _536
REMARK  224  A    between atoms: _535  and  _538
REMARK  225  A    between atoms: _538  and  _539
REMARK  226  A    between atoms: _542  and  _544
REMARK  227  A    between atoms: _544  and  _545
REMARK  228  A    between atoms: _544  and  _547
REMARK  229  A    between atoms: _547  and  _548
REMARK  230  A    between atoms: _551  and  _553
REMARK  231  A    between atoms: _553  and  _554
REMARK  232  A    between atoms: _553  and  _556
REMARK  233  A    between atoms: _556  and  _557
REMARK  234  A    between atoms: _563  and  _565
REMARK  235  A    between atoms: _565  and  _566
REMARK  236  A    between atoms: _569  and  _571
REMARK  237  A    between atoms: _571  and  _572
REMARK  238  A    between atoms: _571  and  _574
REMARK  239  A    between atoms: _574  and  _575
REMARK  240  A    between atoms: _578  and  _580
REMARK  241  A    between atoms: _580  and  _581
REMARK  242  A    between atoms: _580  and  _583
REMARK  243  A    between atoms: _583  and  _584
REMARK  244  A    between atoms: _589  and  _591
REMARK  245  A    between atoms: _591  and  _592
REMARK  246  A    between atoms: _591  and  _594
REMARK  247  A    between atoms: _594  and  _595
REMARK                            x       y       z     vdW  Elec       q    Type
REMARK                         _______ _______ _______ _____ _____    ______ ____
ROOT
ATOM      1  O   HOH     1      16.891 -23.989   1.374  0.00  0.00    +0.000 OA
ENDROOT
TORSDOF 0
REMARK  Name = ../refined-set-2016/4q9o/4q9o_pocket.pdb
REMARK  247 active torsions:
REMARK  status: ('A' for Active; 'I' for Inactive)
REMARK    1  A    between atoms: _1  and  _3
REMARK    2  A    between atoms: _3  and  _4
REMARK    3  A    between atoms: _3  and  _6
REMARK    4  A    between atoms: _6  and  _7
REMARK    5  A    between atoms: _7  and  _8
REMARK    6  A    between atoms: _10  and  _12
REMARK    7  A    between atoms: _12  and  _13
REMARK    8  A    between atoms: _12  and  _15
REMARK    9  A    between atoms: _15  and  _16
REMARK   10  A    between atoms: _21  and  _23
REMARK   11  A    between atoms: _23  and  _24
REMARK   12  A    between atoms: _23  and  _26
REMARK   13  A    between atoms: _26  and  _27
REMARK   14  A    between atoms: _32  and  _34
REMARK   15  A    between atoms: _34  and  _35
REMARK   16  A    between atoms: _34  and  _37
REMARK   17  A    between atoms: _37  and  _38
REMARK   18  A    between atoms: _38  and  _39
REMARK   19  A    between atoms: _39  and  _40
REMARK   20  A    between atoms: _40  and  _41
REMARK   21  A    between atoms: _45  and  _47
REMARK   22  A    between atoms: _47  and  _48
REMARK   23  A    between atoms: _50  and  _52
REMARK   24  A    between atoms: _52  and  _53
REMARK   25  A    between atoms: _52  and  _55
REMARK   26  A    between atoms: _55  and  _56
REMARK   27  A    between atoms: _56  and  _57
REMARK   28  A    between atoms: _59  and  _61
REMARK   29  A    between atoms: _61  and  _62
REMARK   30  A    between atoms: _61  and  _64
REMARK   31  A    between atoms: _64  and  _65
REMARK   32  A    between atoms: _65  and  _66
REMARK   33  A    between atoms: _69  and  _71
REMARK   34  A    between atoms: _71  and  _72
REMARK   35  A    between atoms: _75  and  _77
REMARK   36  A    between atoms: _77  and  _78
REMARK   37  A    between atoms: _77  and  _80
REMARK   38  A    between atoms: _80  and  _81
REMARK   39  A    between atoms: _84  and  _86
REMARK   40  A    between atoms: _86  and  _87
REMARK   41  A    between atoms: _86  and  _89
REMARK   42  A    between atoms: _89  and  _90
REMARK   43  A    between atoms: _90  and  _91
REMARK   44  A    between atoms: _96  and  _98
REMARK   45  A    between atoms: _98  and  _99
REMARK   46  A    between atoms: _98  and  _101
REMARK   47  A    between atoms: _101  and  _102
REMARK   48  A    between atoms: _105  and  _107
REMARK   49  A    between atoms: _107  and  _108
REMARK   50  A    between atoms: _107  and  _110
REMARK   51  A    between atoms: _113  and  _115
REMARK   52  A    between atoms: _115  and  _116
REMARK   53  A    between atoms: _115  and  _118
REMARK   54  A    between atoms: _118  and  _119
REMARK   55  A    between atoms: _122  and  _124
REMARK   56  A    between atoms: _124  and  _125
REMARK   57  A    between atoms: _124  and  _127
REMARK   58  A    between atoms: _127  and  _128
REMARK   59  A    between atoms: _128  and  _129
REMARK   60  A    between atoms: _129  and  _130
REMARK   61  A    between atoms: _130  and  _131
REMARK   62  A    between atoms: _135  and  _137
REMARK   63  A    between atoms: _137  and  _138
REMARK   64  A    between atoms: _137  and  _140
REMARK   65  A    between atoms: _143  and  _145
REMARK   66  A    between atoms: _145  and  _146
REMARK   67  A    between atoms: _145  and  _148
REMARK   68  A    between atoms: _148  and  _149
REMARK   69  A    between atoms: _154  and  _155
REMARK   70  A    between atoms: _157  and  _159
REMARK   71  A    between atoms: _159  and  _160
REMARK   72  A    between atoms: _163  and  _165
REMARK   73  A    between atoms: _165  and  _166
REMARK   74  A    between atoms: _165  and  _168
REMARK   75  A    between atoms: _168  and  _169
REMARK   76  A    between atoms: _175  and  _177
REMARK   77  A    between atoms: _177  and  _178
REMARK   78  A    between atoms: _177  and  _180
REMARK   79  A    between atoms: _180  and  _181
REMARK   80  A    between atoms: _183  and  _185
REMARK   81  A    between atoms: _185  and  _186
REMARK   82  A    between atoms: _185  and  _188
REMARK   83  A    between atoms: _188  and  _189
REMARK   84  A    between atoms: _194  and  _196
REMARK   85  A    between atoms: _196  and  _197
REMARK   86  A    between atoms: _196  and  _199
REMARK   87  A    between atoms: _202  and  _204
REMARK   88  A    between atoms: _204  and  _205
REMARK   89  A    between atoms: _204  and  _207
REMARK   90  A    between atoms: _207  and  _208
REMARK   91  A    between atoms: _208  and  _209
REMARK   92  A    between atoms: _209  and  _210
REMARK   93  A    between atoms: _210  and  _211
REMARK   94  A    between atoms: _215  and  _217
REMARK   95  A    between atoms: _217  and  _218
REMARK   96  A    between atoms: _217  and  _220
REMARK   97  A    between atoms: _220  and  _221
REMARK   98  A    between atoms: _227  and  _229
REMARK   99  A    between atoms: _229  and  _230
REMARK  100  A    between atoms: _229  and  _232
REMARK  101  A    between atoms: _232  and  _233
REMARK  102  A    between atoms: _236  and  _238
REMARK  103  A    between atoms: _238  and  _239
REMARK  104  A    between atoms: _238  and  _241
REMARK  105  A    between atoms: _241  and  _242
REMARK  106  A    between atoms: _242  and  _243
REMARK  107  A    between atoms: _245  and  _247
REMARK  108  A    between atoms: _247  and  _248
REMARK  109  A    between atoms: _247  and  _250
REMARK  110  A    between atoms: _250  and  _251
REMARK  111  A    between atoms: _256  and  _258
REMARK  112  A    between atoms: _258  and  _259
REMARK  113  A    between atoms: _258  and  _261
REMARK  114  A    between atoms: _261  and  _262
REMARK  115  A    between atoms: _266  and  _267
REMARK  116  A    between atoms: _272  and  _274
REMARK  117  A    between atoms: _274  and  _275
REMARK  118  A    between atoms: _274  and  _277
REMARK  119  A    between atoms: _280  and  _282
REMARK  120  A    between atoms: _282  and  _283
REMARK  121  A    between atoms: _282  and  _285
REMARK  122  A    between atoms: _285  and  _286
REMARK  123  A    between atoms: _286  and  _287
REMARK  124  A    between atoms: _290  and  _292
REMARK  125  A    between atoms: _292  and  _293
REMARK  126  A    between atoms: _292  and  _295
REMARK  127  A    between atoms: _295  and  _296
REMARK  128  A    between atoms: _302  and  _304
REMARK  129  A    between atoms: _304  and  _305
REMARK  130  A    between atoms: _304  and  _307
REMARK  131  A    between atoms: _307  and  _308
REMARK  132  A    between atoms: _313  and  _314
REMARK  133  A    between atoms: _316  and  _318
REMARK  134  A    between atoms: _318  and  _319
REMARK  135  A    between atoms: _318  and  _321
REMARK  136  A    between atoms: _321  and  _322
REMARK  137  A    between atoms: _325  and  _327
REMARK  138  A    between atoms: _327  and  _328
REMARK  139  A    between atoms: _327  and  _330
REMARK  140  A    between atoms: _330  and  _331
REMARK  141  A    between atoms: _336  and  _338
REMARK  142  A    between atoms: _338  and  _339
REMARK  143  A    between atoms: _338  and  _341
REMARK  144  A    between atoms: _341  and  _342
REMARK  145  A    between atoms: _347  and  _348
REMARK  146  A    between atoms: _350  and  _352
REMARK  147  A    between atoms: _352  and  _353
REMARK  148  A    between atoms: _352  and  _355
REMARK  149  A    between atoms: _359  and  _360
REMARK  150  A    between atoms: _365  and  _367
REMARK  151  A    between atoms: _367  and  _368
REMARK  152  A    between atoms: _367  and  _370
REMARK  153  A    between atoms: _370  and  _371
REMARK  154  A    between atoms: _371  and  _372
REMARK  155  A    between atoms: _375  and  _377
REMARK  156  A    between atoms: _377  and  _378
REMARK  157  A    between atoms: _377  and  _380
REMARK  158  A    between atoms: _380  and  _381
REMARK  159  A    between atoms: _384  and  _386
REMARK  160  A    between atoms: _386  and  _387
REMARK  161  A    between atoms: _386  and  _389
REMARK  162  A    between atoms: _389  and  _390
REMARK  163  A    between atoms: _395  and  _397
REMARK  164  A    between atoms: _397  and  _398
REMARK  165  A    between atoms: _397  and  _400
REMARK  166  A    between atoms: _403  and  _405
REMARK  167  A    between atoms: _405  and  _406
REMARK  168  A    between atoms: _405  and  _408
REMARK  169  A    between atoms: _408  and  _409
REMARK  170  A    between atoms: _412  and  _414
REMARK  171  A    between atoms: _414  and  _415
REMARK  172  A    between atoms: _414  and  _417
REMARK  173  A    between atoms: _417  and  _418
REMARK  174  A    between atoms: _418  and  _419
REMARK  175  A    between atoms: _424  and  _426
REMARK  176  A    between atoms: _426  and  _427
REMARK  177  A    between atoms: _426  and  _429
REMARK  178  A    between atoms: _429  and  _430
REMARK  179  A    between atoms: _430  and  _431
REMARK  180  A    between atoms: _433  and  _435
REMARK  181  A    between atoms: _435  and  _436
REMARK  182  A    between atoms: _435  and  _438
REMARK  183  A    between atoms: _438  and  _439
REMARK  184  A    between atoms: _443  and  _444
REMARK  185  A    between atoms: _449  and  _451
REMARK  186  A    between atoms: _451  and  _452
REMARK  187  A    between atoms: _451  and  _454
REMARK  188  A    between atoms: _454  and  _455
REMARK  189  A    between atoms: _458  and  _460
REMARK  190  A    between atoms: _460  and  _461
REMARK  191  A    between atoms: _460  and  _463
REMARK  192  A    between atoms: _463  and  _464
REMARK  193  A    between atoms: _470  and  _472
REMARK  194  A    between atoms: _472  and  _473
REMARK  195  A    between atoms: _472  and  _475
REMARK  196  A    between atoms: _475  and  _476
REMARK  197  A    between atoms: _476  and  _477
REMARK  198  A    between atoms: _480  and  _482
REMARK  199  A    between atoms: _482  and  _483
REMARK  200  A    between atoms: _486  and  _488
REMARK  201  A    between atoms: _488  and  _489
REMARK  202  A    between atoms: _488  and  _491
REMARK  203  A    between atoms: _491  and  _492
REMARK  204  A    between atoms: _495  and  _497
REMARK  205  A    between atoms: _497  and  _498
REMARK  206  A    between atoms: _497  and  _500
REMARK  207  A    between atoms: _500  and  _501
REMARK  208  A    between atoms: _504  and  _506
REMARK  209  A    between atoms: _506  and  _507
REMARK  210  A    between atoms: _506  and  _509
REMARK  211  A    between atoms: _509  and  _510
REMARK  212  A    between atoms: _510  and  _511
REMARK  213  A    between atoms: _511  and  _512
REMARK  214  A    between atoms: _512  and  _513
REMARK  215  A    between atoms: _517  and  _519
REMARK  216  A    between atoms: _519  and  _520
REMARK  217  A    between atoms: _523  and  _525
REMARK  218  A    between atoms: _525  and  _526
REMARK  219  A    between atoms: _525  and  _528
REMARK  220  A    between atoms: _528  and  _529
REMARK  221  A    between atoms: _529  and  _530
REMARK  222  A    between atoms: _533  and  _535
REMARK  223  A    between atoms: _535  and  _536
REMARK  224  A    between atoms: _535  and  _538
REMARK  225  A    between atoms: _538  and  _539
REMARK  226  A    between atoms: _542  and  _544
REMARK  227  A    between atoms: _544  and  _545
REMARK  228  A    between atoms: _544  and  _547
REMARK  229  A    between atoms: _547  and  _548
REMARK  230  A    between atoms: _551  and  _553
REMARK  231  A    between atoms: _553  and  _554
REMARK  232  A    between atoms: _553  and  _556
REMARK  233  A    between atoms: _556  and  _557
REMARK  234  A    between atoms: _563  and  _565
REMARK  235  A    between atoms: _565  and  _566
REMARK  236  A    between atoms: _569  and  _571
REMARK  237  A    between atoms: _571  and  _572
REMARK  238  A    between atoms: _571  and  _574
REMARK  239  A    between atoms: _574  and  _575
REMARK  240  A    between atoms: _578  and  _580
REMARK  241  A    between atoms: _580  and  _581
REMARK  242  A    between atoms: _580  and  _583
REMARK  243  A    between atoms: _583  and  _584
REMARK  244  A    between atoms: _589  and  _591
REMARK  245  A    between atoms: _591  and  _592
REMARK  246  A    between atoms: _591  and  _594
REMARK  247  A    between atoms: _594  and  _595
REMARK                            x       y       z     vdW  Elec       q    Type
REMARK                         _______ _______ _______ _____ _____    ______ ____
ROOT
ATOM      1  O   HOH     1      26.916 -12.756   4.883  0.00  0.00    +0.000 OA
ENDROOT
TORSDOF 0
REMARK  Name = ../refined-set-2016/4q9o/4q9o_pocket.pdb
REMARK  247 active torsions:
REMARK  status: ('A' for Active; 'I' for Inactive)
REMARK    1  A    between atoms: _1  and  _3
REMARK    2  A    between atoms: _3  and  _4
REMARK    3  A    between atoms: _3  and  _6
REMARK    4  A    between atoms: _6  and  _7
REMARK    5  A    between atoms: _7  and  _8
REMARK    6  A    between atoms: _10  and  _12
REMARK    7  A    between atoms: _12  and  _13
REMARK    8  A    between atoms: _12  and  _15
REMARK    9  A    between atoms: _15  and  _16
REMARK   10  A    between atoms: _21  and  _23
REMARK   11  A    between atoms: _23  and  _24
REMARK   12  A    between atoms: _23  and  _26
REMARK   13  A    between atoms: _26  and  _27
REMARK   14  A    between atoms: _32  and  _34
REMARK   15  A    between atoms: _34  and  _35
REMARK   16  A    between atoms: _34  and  _37
REMARK   17  A    between atoms: _37  and  _38
REMARK   18  A    between atoms: _38  and  _39
REMARK   19  A    between atoms: _39  and  _40
REMARK   20  A    between atoms: _40  and  _41
REMARK   21  A    between atoms: _45  and  _47
REMARK   22  A    between atoms: _47  and  _48
REMARK   23  A    between atoms: _50  and  _52
REMARK   24  A    between atoms: _52  and  _53
REMARK   25  A    between atoms: _52  and  _55
REMARK   26  A    between atoms: _55  and  _56
REMARK   27  A    between atoms: _56  and  _57
REMARK   28  A    between atoms: _59  and  _61
REMARK   29  A    between atoms: _61  and  _62
REMARK   30  A    between atoms: _61  and  _64
REMARK   31  A    between atoms: _64  and  _65
REMARK   32  A    between atoms: _65  and  _66
REMARK   33  A    between atoms: _69  and  _71
REMARK   34  A    between atoms: _71  and  _72
REMARK   35  A    between atoms: _75  and  _77
REMARK   36  A    between atoms: _77  and  _78
REMARK   37  A    between atoms: _77  and  _80
REMARK   38  A    between atoms: _80  and  _81
REMARK   39  A    between atoms: _84  and  _86
REMARK   40  A    between atoms: _86  and  _87
REMARK   41  A    between atoms: _86  and  _89
REMARK   42  A    between atoms: _89  and  _90
REMARK   43  A    between atoms: _90  and  _91
REMARK   44  A    between atoms: _96  and  _98
REMARK   45  A    between atoms: _98  and  _99
REMARK   46  A    between atoms: _98  and  _101
REMARK   47  A    between atoms: _101  and  _102
REMARK   48  A    between atoms: _105  and  _107
REMARK   49  A    between atoms: _107  and  _108
REMARK   50  A    between atoms: _107  and  _110
REMARK   51  A    between atoms: _113  and  _115
REMARK   52  A    between atoms: _115  and  _116
REMARK   53  A    between atoms: _115  and  _118
REMARK   54  A    between atoms: _118  and  _119
REMARK   55  A    between atoms: _122  and  _124
REMARK   56  A    between atoms: _124  and  _125
REMARK   57  A    between atoms: _124  and  _127
REMARK   58  A    between atoms: _127  and  _128
REMARK   59  A    between atoms: _128  and  _129
REMARK   60  A    between atoms: _129  and  _130
REMARK   61  A    between atoms: _130  and  _131
REMARK   62  A    between atoms: _135  and  _137
REMARK   63  A    between atoms: _137  and  _138
REMARK   64  A    between atoms: _137  and  _140
REMARK   65  A    between atoms: _143  and  _145
REMARK   66  A    between atoms: _145  and  _146
REMARK   67  A    between atoms: _145  and  _148
REMARK   68  A    between atoms: _148  and  _149
REMARK   69  A    between atoms: _154  and  _155
REMARK   70  A    between atoms: _157  and  _159
REMARK   71  A    between atoms: _159  and  _160
REMARK   72  A    between atoms: _163  and  _165
REMARK   73  A    between atoms: _165  and  _166
REMARK   74  A    between atoms: _165  and  _168
REMARK   75  A    between atoms: _168  and  _169
REMARK   76  A    between atoms: _175  and  _177
REMARK   77  A    between atoms: _177  and  _178
REMARK   78  A    between atoms: _177  and  _180
REMARK   79  A    between atoms: _180  and  _181
REMARK   80  A    between atoms: _183  and  _185
REMARK   81  A    between atoms: _185  and  _186
REMARK   82  A    between atoms: _185  and  _188
REMARK   83  A    between atoms: _188  and  _189
REMARK   84  A    between atoms: _194  and  _196
REMARK   85  A    between atoms: _196  and  _197
REMARK   86  A    between atoms: _196  and  _199
REMARK   87  A    between atoms: _202  and  _204
REMARK   88  A    between atoms: _204  and  _205
REMARK   89  A    between atoms: _204  and  _207
REMARK   90  A    between atoms: _207  and  _208
REMARK   91  A    between atoms: _208  and  _209
REMARK   92  A    between atoms: _209  and  _210
REMARK   93  A    between atoms: _210  and  _211
REMARK   94  A    between atoms: _215  and  _217
REMARK   95  A    between atoms: _217  and  _218
REMARK   96  A    between atoms: _217  and  _220
REMARK   97  A    between atoms: _220  and  _221
REMARK   98  A    between atoms: _227  and  _229
REMARK   99  A    between atoms: _229  and  _230
REMARK  100  A    between atoms: _229  and  _232
REMARK  101  A    between atoms: _232  and  _233
REMARK  102  A    between atoms: _236  and  _238
REMARK  103  A    between atoms: _238  and  _239
REMARK  104  A    between atoms: _238  and  _241
REMARK  105  A    between atoms: _241  and  _242
REMARK  106  A    between atoms: _242  and  _243
REMARK  107  A    between atoms: _245  and  _247
REMARK  108  A    between atoms: _247  and  _248
REMARK  109  A    between atoms: _247  and  _250
REMARK  110  A    between atoms: _250  and  _251
REMARK  111  A    between atoms: _256  and  _258
REMARK  112  A    between atoms: _258  and  _259
REMARK  113  A    between atoms: _258  and  _261
REMARK  114  A    between atoms: _261  and  _262
REMARK  115  A    between atoms: _266  and  _267
REMARK  116  A    between atoms: _272  and  _274
REMARK  117  A    between atoms: _274  and  _275
REMARK  118  A    between atoms: _274  and  _277
REMARK  119  A    between atoms: _280  and  _282
REMARK  120  A    between atoms: _282  and  _283
REMARK  121  A    between atoms: _282  and  _285
REMARK  122  A    between atoms: _285  and  _286
REMARK  123  A    between atoms: _286  and  _287
REMARK  124  A    between atoms: _290  and  _292
REMARK  125  A    between atoms: _292  and  _293
REMARK  126  A    between atoms: _292  and  _295
REMARK  127  A    between atoms: _295  and  _296
REMARK  128  A    between atoms: _302  and  _304
REMARK  129  A    between atoms: _304  and  _305
REMARK  130  A    between atoms: _304  and  _307
REMARK  131  A    between atoms: _307  and  _308
REMARK  132  A    between atoms: _313  and  _314
REMARK  133  A    between atoms: _316  and  _318
REMARK  134  A    between atoms: _318  and  _319
REMARK  135  A    between atoms: _318  and  _321
REMARK  136  A    between atoms: _321  and  _322
REMARK  137  A    between atoms: _325  and  _327
REMARK  138  A    between atoms: _327  and  _328
REMARK  139  A    between atoms: _327  and  _330
REMARK  140  A    between atoms: _330  and  _331
REMARK  141  A    between atoms: _336  and  _338
REMARK  142  A    between atoms: _338  and  _339
REMARK  143  A    between atoms: _338  and  _341
REMARK  144  A    between atoms: _341  and  _342
REMARK  145  A    between atoms: _347  and  _348
REMARK  146  A    between atoms: _350  and  _352
REMARK  147  A    between atoms: _352  and  _353
REMARK  148  A    between atoms: _352  and  _355
REMARK  149  A    between atoms: _359  and  _360
REMARK  150  A    between atoms: _365  and  _367
REMARK  151  A    between atoms: _367  and  _368
REMARK  152  A    between atoms: _367  and  _370
REMARK  153  A    between atoms: _370  and  _371
REMARK  154  A    between atoms: _371  and  _372
REMARK  155  A    between atoms: _375  and  _377
REMARK  156  A    between atoms: _377  and  _378
REMARK  157  A    between atoms: _377  and  _380
REMARK  158  A    between atoms: _380  and  _381
REMARK  159  A    between atoms: _384  and  _386
REMARK  160  A    between atoms: _386  and  _387
REMARK  161  A    between atoms: _386  and  _389
REMARK  162  A    between atoms: _389  and  _390
REMARK  163  A    between atoms: _395  and  _397
REMARK  164  A    between atoms: _397  and  _398
REMARK  165  A    between atoms: _397  and  _400
REMARK  166  A    between atoms: _403  and  _405
REMARK  167  A    between atoms: _405  and  _406
REMARK  168  A    between atoms: _405  and  _408
REMARK  169  A    between atoms: _408  and  _409
REMARK  170  A    between atoms: _412  and  _414
REMARK  171  A    between atoms: _414  and  _415
REMARK  172  A    between atoms: _414  and  _417
REMARK  173  A    between atoms: _417  and  _418
REMARK  174  A    between atoms: _418  and  _419
REMARK  175  A    between atoms: _424  and  _426
REMARK  176  A    between atoms: _426  and  _427
REMARK  177  A    between atoms: _426  and  _429
REMARK  178  A    between atoms: _429  and  _430
REMARK  179  A    between atoms: _430  and  _431
REMARK  180  A    between atoms: _433  and  _435
REMARK  181  A    between atoms: _435  and  _436
REMARK  182  A    between atoms: _435  and  _438
REMARK  183  A    between atoms: _438  and  _439
REMARK  184  A    between atoms: _443  and  _444
REMARK  185  A    between atoms: _449  and  _451
REMARK  186  A    between atoms: _451  and  _452
REMARK  187  A    between atoms: _451  and  _454
REMARK  188  A    between atoms: _454  and  _455
REMARK  189  A    between atoms: _458  and  _460
REMARK  190  A    between atoms: _460  and  _461
REMARK  191  A    between atoms: _460  and  _463
REMARK  192  A    between atoms: _463  and  _464
REMARK  193  A    between atoms: _470  and  _472
REMARK  194  A    between atoms: _472  and  _473
REMARK  195  A    between atoms: _472  and  _475
REMARK  196  A    between atoms: _475  and  _476
REMARK  197  A    between atoms: _476  and  _477
REMARK  198  A    between atoms: _480  and  _482
REMARK  199  A    between atoms: _482  and  _483
REMARK  200  A    between atoms: _486  and  _488
REMARK  201  A    between atoms: _488  and  _489
REMARK  202  A    between atoms: _488  and  _491
REMARK  203  A    between atoms: _491  and  _492
REMARK  204  A    between atoms: _495  and  _497
REMARK  205  A    between atoms: _497  and  _498
REMARK  206  A    between atoms: _497  and  _500
REMARK  207  A    between atoms: _500  and  _501
REMARK  208  A    between atoms: _504  and  _506
REMARK  209  A    between atoms: _506  and  _507
REMARK  210  A    between atoms: _506  and  _509
REMARK  211  A    between atoms: _509  and  _510
REMARK  212  A    between atoms: _510  and  _511
REMARK  213  A    between atoms: _511  and  _512
REMARK  214  A    between atoms: _512  and  _513
REMARK  215  A    between atoms: _517  and  _519
REMARK  216  A    between atoms: _519  and  _520
REMARK  217  A    between atoms: _523  and  _525
REMARK  218  A    between atoms: _525  and  _526
REMARK  219  A    between atoms: _525  and  _528
REMARK  220  A    between atoms: _528  and  _529
REMARK  221  A    between atoms: _529  and  _530
REMARK  222  A    between atoms: _533  and  _535
REMARK  223  A    between atoms: _535  and  _536
REMARK  224  A    between atoms: _535  and  _538
REMARK  225  A    between atoms: _538  and  _539
REMARK  226  A    between atoms: _542  and  _544
REMARK  227  A    between atoms: _544  and  _545
REMARK  228  A    between atoms: _544  and  _547
REMARK  229  A    between atoms: _547  and  _548
REMARK  230  A    between atoms: _551  and  _553
REMARK  231  A    between atoms: _553  and  _554
REMARK  232  A    between atoms: _553  and  _556
REMARK  233  A    between atoms: _556  and  _557
REMARK  234  A    between atoms: _563  and  _565
REMARK  235  A    between atoms: _565  and  _566
REMARK  236  A    between atoms: _569  and  _571
REMARK  237  A    between atoms: _571  and  _572
REMARK  238  A    between atoms: _571  and  _574
REMARK  239  A    between atoms: _574  and  _575
REMARK  240  A    between atoms: _578  and  _580
REMARK  241  A    between atoms: _580  and  _581
REMARK  242  A    between atoms: _580  and  _583
REMARK  243  A    between atoms: _583  and  _584
REMARK  244  A    between atoms: _589  and  _591
REMARK  245  A    between atoms: _591  and  _592
REMARK  246  A    between atoms: _591  and  _594
REMARK  247  A    between atoms: _594  and  _595
REMARK                            x       y       z     vdW  Elec       q    Type
REMARK                         _______ _______ _______ _____ _____    ______ ____
ROOT
ATOM      1  O   HOH     1      28.729 -12.136   6.821  0.00  0.00    +0.000 OA
ENDROOT
TORSDOF 0
REMARK  Name = ../refined-set-2016/4q9o/4q9o_pocket.pdb
REMARK  247 active torsions:
REMARK  status: ('A' for Active; 'I' for Inactive)
REMARK    1  A    between atoms: _1  and  _3
REMARK    2  A    between atoms: _3  and  _4
REMARK    3  A    between atoms: _3  and  _6
REMARK    4  A    between atoms: _6  and  _7
REMARK    5  A    between atoms: _7  and  _8
REMARK    6  A    between atoms: _10  and  _12
REMARK    7  A    between atoms: _12  and  _13
REMARK    8  A    between atoms: _12  and  _15
REMARK    9  A    between atoms: _15  and  _16
REMARK   10  A    between atoms: _21  and  _23
REMARK   11  A    between atoms: _23  and  _24
REMARK   12  A    between atoms: _23  and  _26
REMARK   13  A    between atoms: _26  and  _27
REMARK   14  A    between atoms: _32  and  _34
REMARK   15  A    between atoms: _34  and  _35
REMARK   16  A    between atoms: _34  and  _37
REMARK   17  A    between atoms: _37  and  _38
REMARK   18  A    between atoms: _38  and  _39
REMARK   19  A    between atoms: _39  and  _40
REMARK   20  A    between atoms: _40  and  _41
REMARK   21  A    between atoms: _45  and  _47
REMARK   22  A    between atoms: _47  and  _48
REMARK   23  A    between atoms: _50  and  _52
REMARK   24  A    between atoms: _52  and  _53
REMARK   25  A    between atoms: _52  and  _55
REMARK   26  A    between atoms: _55  and  _56
REMARK   27  A    between atoms: _56  and  _57
REMARK   28  A    between atoms: _59  and  _61
REMARK   29  A    between atoms: _61  and  _62
REMARK   30  A    between atoms: _61  and  _64
REMARK   31  A    between atoms: _64  and  _65
REMARK   32  A    between atoms: _65  and  _66
REMARK   33  A    between atoms: _69  and  _71
REMARK   34  A    between atoms: _71  and  _72
REMARK   35  A    between atoms: _75  and  _77
REMARK   36  A    between atoms: _77  and  _78
REMARK   37  A    between atoms: _77  and  _80
REMARK   38  A    between atoms: _80  and  _81
REMARK   39  A    between atoms: _84  and  _86
REMARK   40  A    between atoms: _86  and  _87
REMARK   41  A    between atoms: _86  and  _89
REMARK   42  A    between atoms: _89  and  _90
REMARK   43  A    between atoms: _90  and  _91
REMARK   44  A    between atoms: _96  and  _98
REMARK   45  A    between atoms: _98  and  _99
REMARK   46  A    between atoms: _98  and  _101
REMARK   47  A    between atoms: _101  and  _102
REMARK   48  A    between atoms: _105  and  _107
REMARK   49  A    between atoms: _107  and  _108
REMARK   50  A    between atoms: _107  and  _110
REMARK   51  A    between atoms: _113  and  _115
REMARK   52  A    between atoms: _115  and  _116
REMARK   53  A    between atoms: _115  and  _118
REMARK   54  A    between atoms: _118  and  _119
REMARK   55  A    between atoms: _122  and  _124
REMARK   56  A    between atoms: _124  and  _125
REMARK   57  A    between atoms: _124  and  _127
REMARK   58  A    between atoms: _127  and  _128
REMARK   59  A    between atoms: _128  and  _129
REMARK   60  A    between atoms: _129  and  _130
REMARK   61  A    between atoms: _130  and  _131
REMARK   62  A    between atoms: _135  and  _137
REMARK   63  A    between atoms: _137  and  _138
REMARK   64  A    between atoms: _137  and  _140
REMARK   65  A    between atoms: _143  and  _145
REMARK   66  A    between atoms: _145  and  _146
REMARK   67  A    between atoms: _145  and  _148
REMARK   68  A    between atoms: _148  and  _149
REMARK   69  A    between atoms: _154  and  _155
REMARK   70  A    between atoms: _157  and  _159
REMARK   71  A    between atoms: _159  and  _160
REMARK   72  A    between atoms: _163  and  _165
REMARK   73  A    between atoms: _165  and  _166
REMARK   74  A    between atoms: _165  and  _168
REMARK   75  A    between atoms: _168  and  _169
REMARK   76  A    between atoms: _175  and  _177
REMARK   77  A    between atoms: _177  and  _178
REMARK   78  A    between atoms: _177  and  _180
REMARK   79  A    between atoms: _180  and  _181
REMARK   80  A    between atoms: _183  and  _185
REMARK   81  A    between atoms: _185  and  _186
REMARK   82  A    between atoms: _185  and  _188
REMARK   83  A    between atoms: _188  and  _189
REMARK   84  A    between atoms: _194  and  _196
REMARK   85  A    between atoms: _196  and  _197
REMARK   86  A    between atoms: _196  and  _199
REMARK   87  A    between atoms: _202  and  _204
REMARK   88  A    between atoms: _204  and  _205
REMARK   89  A    between atoms: _204  and  _207
REMARK   90  A    between atoms: _207  and  _208
REMARK   91  A    between atoms: _208  and  _209
REMARK   92  A    between atoms: _209  and  _210
REMARK   93  A    between atoms: _210  and  _211
REMARK   94  A    between atoms: _215  and  _217
REMARK   95  A    between atoms: _217  and  _218
REMARK   96  A    between atoms: _217  and  _220
REMARK   97  A    between atoms: _220  and  _221
REMARK   98  A    between atoms: _227  and  _229
REMARK   99  A    between atoms: _229  and  _230
REMARK  100  A    between atoms: _229  and  _232
REMARK  101  A    between atoms: _232  and  _233
REMARK  102  A    between atoms: _236  and  _238
REMARK  103  A    between atoms: _238  and  _239
REMARK  104  A    between atoms: _238  and  _241
REMARK  105  A    between atoms: _241  and  _242
REMARK  106  A    between atoms: _242  and  _243
REMARK  107  A    between atoms: _245  and  _247
REMARK  108  A    between atoms: _247  and  _248
REMARK  109  A    between atoms: _247  and  _250
REMARK  110  A    between atoms: _250  and  _251
REMARK  111  A    between atoms: _256  and  _258
REMARK  112  A    between atoms: _258  and  _259
REMARK  113  A    between atoms: _258  and  _261
REMARK  114  A    between atoms: _261  and  _262
REMARK  115  A    between atoms: _266  and  _267
REMARK  116  A    between atoms: _272  and  _274
REMARK  117  A    between atoms: _274  and  _275
REMARK  118  A    between atoms: _274  and  _277
REMARK  119  A    between atoms: _280  and  _282
REMARK  120  A    between atoms: _282  and  _283
REMARK  121  A    between atoms: _282  and  _285
REMARK  122  A    between atoms: _285  and  _286
REMARK  123  A    between atoms: _286  and  _287
REMARK  124  A    between atoms: _290  and  _292
REMARK  125  A    between atoms: _292  and  _293
REMARK  126  A    between atoms: _292  and  _295
REMARK  127  A    between atoms: _295  and  _296
REMARK  128  A    between atoms: _302  and  _304
REMARK  129  A    between atoms: _304  and  _305
REMARK  130  A    between atoms: _304  and  _307
REMARK  131  A    between atoms: _307  and  _308
REMARK  132  A    between atoms: _313  and  _314
REMARK  133  A    between atoms: _316  and  _318
REMARK  134  A    between atoms: _318  and  _319
REMARK  135  A    between atoms: _318  and  _321
REMARK  136  A    between atoms: _321  and  _322
REMARK  137  A    between atoms: _325  and  _327
REMARK  138  A    between atoms: _327  and  _328
REMARK  139  A    between atoms: _327  and  _330
REMARK  140  A    between atoms: _330  and  _331
REMARK  141  A    between atoms: _336  and  _338
REMARK  142  A    between atoms: _338  and  _339
REMARK  143  A    between atoms: _338  and  _341
REMARK  144  A    between atoms: _341  and  _342
REMARK  145  A    between atoms: _347  and  _348
REMARK  146  A    between atoms: _350  and  _352
REMARK  147  A    between atoms: _352  and  _353
REMARK  148  A    between atoms: _352  and  _355
REMARK  149  A    between atoms: _359  and  _360
REMARK  150  A    between atoms: _365  and  _367
REMARK  151  A    between atoms: _367  and  _368
REMARK  152  A    between atoms: _367  and  _370
REMARK  153  A    between atoms: _370  and  _371
REMARK  154  A    between atoms: _371  and  _372
REMARK  155  A    between atoms: _375  and  _377
REMARK  156  A    between atoms: _377  and  _378
REMARK  157  A    between atoms: _377  and  _380
REMARK  158  A    between atoms: _380  and  _381
REMARK  159  A    between atoms: _384  and  _386
REMARK  160  A    between atoms: _386  and  _387
REMARK  161  A    between atoms: _386  and  _389
REMARK  162  A    between atoms: _389  and  _390
REMARK  163  A    between atoms: _395  and  _397
REMARK  164  A    between atoms: _397  and  _398
REMARK  165  A    between atoms: _397  and  _400
REMARK  166  A    between atoms: _403  and  _405
REMARK  167  A    between atoms: _405  and  _406
REMARK  168  A    between atoms: _405  and  _408
REMARK  169  A    between atoms: _408  and  _409
REMARK  170  A    between atoms: _412  and  _414
REMARK  171  A    between atoms: _414  and  _415
REMARK  172  A    between atoms: _414  and  _417
REMARK  173  A    between atoms: _417  and  _418
REMARK  174  A    between atoms: _418  and  _419
REMARK  175  A    between atoms: _424  and  _426
REMARK  176  A    between atoms: _426  and  _427
REMARK  177  A    between atoms: _426  and  _429
REMARK  178  A    between atoms: _429  and  _430
REMARK  179  A    between atoms: _430  and  _431
REMARK  180  A    between atoms: _433  and  _435
REMARK  181  A    between atoms: _435  and  _436
REMARK  182  A    between atoms: _435  and  _438
REMARK  183  A    between atoms: _438  and  _439
REMARK  184  A    between atoms: _443  and  _444
REMARK  185  A    between atoms: _449  and  _451
REMARK  186  A    between atoms: _451  and  _452
REMARK  187  A    between atoms: _451  and  _454
REMARK  188  A    between atoms: _454  and  _455
REMARK  189  A    between atoms: _458  and  _460
REMARK  190  A    between atoms: _460  and  _461
REMARK  191  A    between atoms: _460  and  _463
REMARK  192  A    between atoms: _463  and  _464
REMARK  193  A    between atoms: _470  and  _472
REMARK  194  A    between atoms: _472  and  _473
REMARK  195  A    between atoms: _472  and  _475
REMARK  196  A    between atoms: _475  and  _476
REMARK  197  A    between atoms: _476  and  _477
REMARK  198  A    between atoms: _480  and  _482
REMARK  199  A    between atoms: _482  and  _483
REMARK  200  A    between atoms: _486  and  _488
REMARK  201  A    between atoms: _488  and  _489
REMARK  202  A    between atoms: _488  and  _491
REMARK  203  A    between atoms: _491  and  _492
REMARK  204  A    between atoms: _495  and  _497
REMARK  205  A    between atoms: _497  and  _498
REMARK  206  A    between atoms: _497  and  _500
REMARK  207  A    between atoms: _500  and  _501
REMARK  208  A    between atoms: _504  and  _506
REMARK  209  A    between atoms: _506  and  _507
REMARK  210  A    between atoms: _506  and  _509
REMARK  211  A    between atoms: _509  and  _510
REMARK  212  A    between atoms: _510  and  _511
REMARK  213  A    between atoms: _511  and  _512
REMARK  214  A    between atoms: _512  and  _513
REMARK  215  A    between atoms: _517  and  _519
REMARK  216  A    between atoms: _519  and  _520
REMARK  217  A    between atoms: _523  and  _525
REMARK  218  A    between atoms: _525  and  _526
REMARK  219  A    between atoms: _525  and  _528
REMARK  220  A    between atoms: _528  and  _529
REMARK  221  A    between atoms: _529  and  _530
REMARK  222  A    between atoms: _533  and  _535
REMARK  223  A    between atoms: _535  and  _536
REMARK  224  A    between atoms: _535  and  _538
REMARK  225  A    between atoms: _538  and  _539
REMARK  226  A    between atoms: _542  and  _544
REMARK  227  A    between atoms: _544  and  _545
REMARK  228  A    between atoms: _544  and  _547
REMARK  229  A    between atoms: _547  and  _548
REMARK  230  A    between atoms: _551  and  _553
REMARK  231  A    between atoms: _553  and  _554
REMARK  232  A    between atoms: _553  and  _556
REMARK  233  A    between atoms: _556  and  _557
REMARK  234  A    between atoms: _563  and  _565
REMARK  235  A    between atoms: _565  and  _566
REMARK  236  A    between atoms: _569  and  _571
REMARK  237  A    between atoms: _571  and  _572
REMARK  238  A    between atoms: _571  and  _574
REMARK  239  A    between atoms: _574  and  _575
REMARK  240  A    between atoms: _578  and  _580
REMARK  241  A    between atoms: _580  and  _581
REMARK  242  A    between atoms: _580  and  _583
REMARK  243  A    between atoms: _583  and  _584
REMARK  244  A    between atoms: _589  and  _591
REMARK  245  A    between atoms: _591  and  _592
REMARK  246  A    between atoms: _591  and  _594
REMARK  247  A    between atoms: _594  and  _595
REMARK                            x       y       z     vdW  Elec       q    Type
REMARK                         _______ _______ _______ _____ _____    ______ ____
ROOT
ATOM      1  O   HOH     1      26.840 -14.211   7.412  0.00  0.00    +0.000 OA
ENDROOT
TORSDOF 0
REMARK  Name = ../refined-set-2016/4q9o/4q9o_pocket.pdb
REMARK  247 active torsions:
REMARK  status: ('A' for Active; 'I' for Inactive)
REMARK    1  A    between atoms: _1  and  _3
REMARK    2  A    between atoms: _3  and  _4
REMARK    3  A    between atoms: _3  and  _6
REMARK    4  A    between atoms: _6  and  _7
REMARK    5  A    between atoms: _7  and  _8
REMARK    6  A    between atoms: _10  and  _12
REMARK    7  A    between atoms: _12  and  _13
REMARK    8  A    between atoms: _12  and  _15
REMARK    9  A    between atoms: _15  and  _16
REMARK   10  A    between atoms: _21  and  _23
REMARK   11  A    between atoms: _23  and  _24
REMARK   12  A    between atoms: _23  and  _26
REMARK   13  A    between atoms: _26  and  _27
REMARK   14  A    between atoms: _32  and  _34
REMARK   15  A    between atoms: _34  and  _35
REMARK   16  A    between atoms: _34  and  _37
REMARK   17  A    between atoms: _37  and  _38
REMARK   18  A    between atoms: _38  and  _39
REMARK   19  A    between atoms: _39  and  _40
REMARK   20  A    between atoms: _40  and  _41
REMARK   21  A    between atoms: _45  and  _47
REMARK   22  A    between atoms: _47  and  _48
REMARK   23  A    between atoms: _50  and  _52
REMARK   24  A    between atoms: _52  and  _53
REMARK   25  A    between atoms: _52  and  _55
REMARK   26  A    between atoms: _55  and  _56
REMARK   27  A    between atoms: _56  and  _57
REMARK   28  A    between atoms: _59  and  _61
REMARK   29  A    between atoms: _61  and  _62
REMARK   30  A    between atoms: _61  and  _64
REMARK   31  A    between atoms: _64  and  _65
REMARK   32  A    between atoms: _65  and  _66
REMARK   33  A    between atoms: _69  and  _71
REMARK   34  A    between atoms: _71  and  _72
REMARK   35  A    between atoms: _75  and  _77
REMARK   36  A    between atoms: _77  and  _78
REMARK   37  A    between atoms: _77  and  _80
REMARK   38  A    between atoms: _80  and  _81
REMARK   39  A    between atoms: _84  and  _86
REMARK   40  A    between atoms: _86  and  _87
REMARK   41  A    between atoms: _86  and  _89
REMARK   42  A    between atoms: _89  and  _90
REMARK   43  A    between atoms: _90  and  _91
REMARK   44  A    between atoms: _96  and  _98
REMARK   45  A    between atoms: _98  and  _99
REMARK   46  A    between atoms: _98  and  _101
REMARK   47  A    between atoms: _101  and  _102
REMARK   48  A    between atoms: _105  and  _107
REMARK   49  A    between atoms: _107  and  _108
REMARK   50  A    between atoms: _107  and  _110
REMARK   51  A    between atoms: _113  and  _115
REMARK   52  A    between atoms: _115  and  _116
REMARK   53  A    between atoms: _115  and  _118
REMARK   54  A    between atoms: _118  and  _119
REMARK   55  A    between atoms: _122  and  _124
REMARK   56  A    between atoms: _124  and  _125
REMARK   57  A    between atoms: _124  and  _127
REMARK   58  A    between atoms: _127  and  _128
REMARK   59  A    between atoms: _128  and  _129
REMARK   60  A    between atoms: _129  and  _130
REMARK   61  A    between atoms: _130  and  _131
REMARK   62  A    between atoms: _135  and  _137
REMARK   63  A    between atoms: _137  and  _138
REMARK   64  A    between atoms: _137  and  _140
REMARK   65  A    between atoms: _143  and  _145
REMARK   66  A    between atoms: _145  and  _146
REMARK   67  A    between atoms: _145  and  _148
REMARK   68  A    between atoms: _148  and  _149
REMARK   69  A    between atoms: _154  and  _155
REMARK   70  A    between atoms: _157  and  _159
REMARK   71  A    between atoms: _159  and  _160
REMARK   72  A    between atoms: _163  and  _165
REMARK   73  A    between atoms: _165  and  _166
REMARK   74  A    between atoms: _165  and  _168
REMARK   75  A    between atoms: _168  and  _169
REMARK   76  A    between atoms: _175  and  _177
REMARK   77  A    between atoms: _177  and  _178
REMARK   78  A    between atoms: _177  and  _180
REMARK   79  A    between atoms: _180  and  _181
REMARK   80  A    between atoms: _183  and  _185
REMARK   81  A    between atoms: _185  and  _186
REMARK   82  A    between atoms: _185  and  _188
REMARK   83  A    between atoms: _188  and  _189
REMARK   84  A    between atoms: _194  and  _196
REMARK   85  A    between atoms: _196  and  _197
REMARK   86  A    between atoms: _196  and  _199
REMARK   87  A    between atoms: _202  and  _204
REMARK   88  A    between atoms: _204  and  _205
REMARK   89  A    between atoms: _204  and  _207
REMARK   90  A    between atoms: _207  and  _208
REMARK   91  A    between atoms: _208  and  _209
REMARK   92  A    between atoms: _209  and  _210
REMARK   93  A    between atoms: _210  and  _211
REMARK   94  A    between atoms: _215  and  _217
REMARK   95  A    between atoms: _217  and  _218
REMARK   96  A    between atoms: _217  and  _220
REMARK   97  A    between atoms: _220  and  _221
REMARK   98  A    between atoms: _227  and  _229
REMARK   99  A    between atoms: _229  and  _230
REMARK  100  A    between atoms: _229  and  _232
REMARK  101  A    between atoms: _232  and  _233
REMARK  102  A    between atoms: _236  and  _238
REMARK  103  A    between atoms: _238  and  _239
REMARK  104  A    between atoms: _238  and  _241
REMARK  105  A    between atoms: _241  and  _242
REMARK  106  A    between atoms: _242  and  _243
REMARK  107  A    between atoms: _245  and  _247
REMARK  108  A    between atoms: _247  and  _248
REMARK  109  A    between atoms: _247  and  _250
REMARK  110  A    between atoms: _250  and  _251
REMARK  111  A    between atoms: _256  and  _258
REMARK  112  A    between atoms: _258  and  _259
REMARK  113  A    between atoms: _258  and  _261
REMARK  114  A    between atoms: _261  and  _262
REMARK  115  A    between atoms: _266  and  _267
REMARK  116  A    between atoms: _272  and  _274
REMARK  117  A    between atoms: _274  and  _275
REMARK  118  A    between atoms: _274  and  _277
REMARK  119  A    between atoms: _280  and  _282
REMARK  120  A    between atoms: _282  and  _283
REMARK  121  A    between atoms: _282  and  _285
REMARK  122  A    between atoms: _285  and  _286
REMARK  123  A    between atoms: _286  and  _287
REMARK  124  A    between atoms: _290  and  _292
REMARK  125  A    between atoms: _292  and  _293
REMARK  126  A    between atoms: _292  and  _295
REMARK  127  A    between atoms: _295  and  _296
REMARK  128  A    between atoms: _302  and  _304
REMARK  129  A    between atoms: _304  and  _305
REMARK  130  A    between atoms: _304  and  _307
REMARK  131  A    between atoms: _307  and  _308
REMARK  132  A    between atoms: _313  and  _314
REMARK  133  A    between atoms: _316  and  _318
REMARK  134  A    between atoms: _318  and  _319
REMARK  135  A    between atoms: _318  and  _321
REMARK  136  A    between atoms: _321  and  _322
REMARK  137  A    between atoms: _325  and  _327
REMARK  138  A    between atoms: _327  and  _328
REMARK  139  A    between atoms: _327  and  _330
REMARK  140  A    between atoms: _330  and  _331
REMARK  141  A    between atoms: _336  and  _338
REMARK  142  A    between atoms: _338  and  _339
REMARK  143  A    between atoms: _338  and  _341
REMARK  144  A    between atoms: _341  and  _342
REMARK  145  A    between atoms: _347  and  _348
REMARK  146  A    between atoms: _350  and  _352
REMARK  147  A    between atoms: _352  and  _353
REMARK  148  A    between atoms: _352  and  _355
REMARK  149  A    between atoms: _359  and  _360
REMARK  150  A    between atoms: _365  and  _367
REMARK  151  A    between atoms: _367  and  _368
REMARK  152  A    between atoms: _367  and  _370
REMARK  153  A    between atoms: _370  and  _371
REMARK  154  A    between atoms: _371  and  _372
REMARK  155  A    between atoms: _375  and  _377
REMARK  156  A    between atoms: _377  and  _378
REMARK  157  A    between atoms: _377  and  _380
REMARK  158  A    between atoms: _380  and  _381
REMARK  159  A    between atoms: _384  and  _386
REMARK  160  A    between atoms: _386  and  _387
REMARK  161  A    between atoms: _386  and  _389
REMARK  162  A    between atoms: _389  and  _390
REMARK  163  A    between atoms: _395  and  _397
REMARK  164  A    between atoms: _397  and  _398
REMARK  165  A    between atoms: _397  and  _400
REMARK  166  A    between atoms: _403  and  _405
REMARK  167  A    between atoms: _405  and  _406
REMARK  168  A    between atoms: _405  and  _408
REMARK  169  A    between atoms: _408  and  _409
REMARK  170  A    between atoms: _412  and  _414
REMARK  171  A    between atoms: _414  and  _415
REMARK  172  A    between atoms: _414  and  _417
REMARK  173  A    between atoms: _417  and  _418
REMARK  174  A    between atoms: _418  and  _419
REMARK  175  A    between atoms: _424  and  _426
REMARK  176  A    between atoms: _426  and  _427
REMARK  177  A    between atoms: _426  and  _429
REMARK  178  A    between atoms: _429  and  _430
REMARK  179  A    between atoms: _430  and  _431
REMARK  180  A    between atoms: _433  and  _435
REMARK  181  A    between atoms: _435  and  _436
REMARK  182  A    between atoms: _435  and  _438
REMARK  183  A    between atoms: _438  and  _439
REMARK  184  A    between atoms: _443  and  _444
REMARK  185  A    between atoms: _449  and  _451
REMARK  186  A    between atoms: _451  and  _452
REMARK  187  A    between atoms: _451  and  _454
REMARK  188  A    between atoms: _454  and  _455
REMARK  189  A    between atoms: _458  and  _460
REMARK  190  A    between atoms: _460  and  _461
REMARK  191  A    between atoms: _460  and  _463
REMARK  192  A    between atoms: _463  and  _464
REMARK  193  A    between atoms: _470  and  _472
REMARK  194  A    between atoms: _472  and  _473
REMARK  195  A    between atoms: _472  and  _475
REMARK  196  A    between atoms: _475  and  _476
REMARK  197  A    between atoms: _476  and  _477
REMARK  198  A    between atoms: _480  and  _482
REMARK  199  A    between atoms: _482  and  _483
REMARK  200  A    between atoms: _486  and  _488
REMARK  201  A    between atoms: _488  and  _489
REMARK  202  A    between atoms: _488  and  _491
REMARK  203  A    between atoms: _491  and  _492
REMARK  204  A    between atoms: _495  and  _497
REMARK  205  A    between atoms: _497  and  _498
REMARK  206  A    between atoms: _497  and  _500
REMARK  207  A    between atoms: _500  and  _501
REMARK  208  A    between atoms: _504  and  _506
REMARK  209  A    between atoms: _506  and  _507
REMARK  210  A    between atoms: _506  and  _509
REMARK  211  A    between atoms: _509  and  _510
REMARK  212  A    between atoms: _510  and  _511
REMARK  213  A    between atoms: _511  and  _512
REMARK  214  A    between atoms: _512  and  _513
REMARK  215  A    between atoms: _517  and  _519
REMARK  216  A    between atoms: _519  and  _520
REMARK  217  A    between atoms: _523  and  _525
REMARK  218  A    between atoms: _525  and  _526
REMARK  219  A    between atoms: _525  and  _528
REMARK  220  A    between atoms: _528  and  _529
REMARK  221  A    between atoms: _529  and  _530
REMARK  222  A    between atoms: _533  and  _535
REMARK  223  A    between atoms: _535  and  _536
REMARK  224  A    between atoms: _535  and  _538
REMARK  225  A    between atoms: _538  and  _539
REMARK  226  A    between atoms: _542  and  _544
REMARK  227  A    between atoms: _544  and  _545
REMARK  228  A    between atoms: _544  and  _547
REMARK  229  A    between atoms: _547  and  _548
REMARK  230  A    between atoms: _551  and  _553
REMARK  231  A    between atoms: _553  and  _554
REMARK  232  A    between atoms: _553  and  _556
REMARK  233  A    between atoms: _556  and  _557
REMARK  234  A    between atoms: _563  and  _565
REMARK  235  A    between atoms: _565  and  _566
REMARK  236  A    between atoms: _569  and  _571
REMARK  237  A    between atoms: _571  and  _572
REMARK  238  A    between atoms: _571  and  _574
REMARK  239  A    between atoms: _574  and  _575
REMARK  240  A    between atoms: _578  and  _580
REMARK  241  A    between atoms: _580  and  _581
REMARK  242  A    between atoms: _580  and  _583
REMARK  243  A    between atoms: _583  and  _584
REMARK  244  A    between atoms: _589  and  _591
REMARK  245  A    between atoms: _591  and  _592
REMARK  246  A    between atoms: _591  and  _594
REMARK  247  A    between atoms: _594  and  _595
REMARK                            x       y       z     vdW  Elec       q    Type
REMARK                         _______ _______ _______ _____ _____    ______ ____
ROOT
ATOM      1  O   HOH     1      34.307 -22.620   6.050  0.00  0.00    +0.000 OA
ENDROOT
TORSDOF 0
REMARK  Name = ../refined-set-2016/4q9o/4q9o_pocket.pdb
REMARK  247 active torsions:
REMARK  status: ('A' for Active; 'I' for Inactive)
REMARK    1  A    between atoms: _1  and  _3
REMARK    2  A    between atoms: _3  and  _4
REMARK    3  A    between atoms: _3  and  _6
REMARK    4  A    between atoms: _6  and  _7
REMARK    5  A    between atoms: _7  and  _8
REMARK    6  A    between atoms: _10  and  _12
REMARK    7  A    between atoms: _12  and  _13
REMARK    8  A    between atoms: _12  and  _15
REMARK    9  A    between atoms: _15  and  _16
REMARK   10  A    between atoms: _21  and  _23
REMARK   11  A    between atoms: _23  and  _24
REMARK   12  A    between atoms: _23  and  _26
REMARK   13  A    between atoms: _26  and  _27
REMARK   14  A    between atoms: _32  and  _34
REMARK   15  A    between atoms: _34  and  _35
REMARK   16  A    between atoms: _34  and  _37
REMARK   17  A    between atoms: _37  and  _38
REMARK   18  A    between atoms: _38  and  _39
REMARK   19  A    between atoms: _39  and  _40
REMARK   20  A    between atoms: _40  and  _41
REMARK   21  A    between atoms: _45  and  _47
REMARK   22  A    between atoms: _47  and  _48
REMARK   23  A    between atoms: _50  and  _52
REMARK   24  A    between atoms: _52  and  _53
REMARK   25  A    between atoms: _52  and  _55
REMARK   26  A    between atoms: _55  and  _56
REMARK   27  A    between atoms: _56  and  _57
REMARK   28  A    between atoms: _59  and  _61
REMARK   29  A    between atoms: _61  and  _62
REMARK   30  A    between atoms: _61  and  _64
REMARK   31  A    between atoms: _64  and  _65
REMARK   32  A    between atoms: _65  and  _66
REMARK   33  A    between atoms: _69  and  _71
REMARK   34  A    between atoms: _71  and  _72
REMARK   35  A    between atoms: _75  and  _77
REMARK   36  A    between atoms: _77  and  _78
REMARK   37  A    between atoms: _77  and  _80
REMARK   38  A    between atoms: _80  and  _81
REMARK   39  A    between atoms: _84  and  _86
REMARK   40  A    between atoms: _86  and  _87
REMARK   41  A    between atoms: _86  and  _89
REMARK   42  A    between atoms: _89  and  _90
REMARK   43  A    between atoms: _90  and  _91
REMARK   44  A    between atoms: _96  and  _98
REMARK   45  A    between atoms: _98  and  _99
REMARK   46  A    between atoms: _98  and  _101
REMARK   47  A    between atoms: _101  and  _102
REMARK   48  A    between atoms: _105  and  _107
REMARK   49  A    between atoms: _107  and  _108
REMARK   50  A    between atoms: _107  and  _110
REMARK   51  A    between atoms: _113  and  _115
REMARK   52  A    between atoms: _115  and  _116
REMARK   53  A    between atoms: _115  and  _118
REMARK   54  A    between atoms: _118  and  _119
REMARK   55  A    between atoms: _122  and  _124
REMARK   56  A    between atoms: _124  and  _125
REMARK   57  A    between atoms: _124  and  _127
REMARK   58  A    between atoms: _127  and  _128
REMARK   59  A    between atoms: _128  and  _129
REMARK   60  A    between atoms: _129  and  _130
REMARK   61  A    between atoms: _130  and  _131
REMARK   62  A    between atoms: _135  and  _137
REMARK   63  A    between atoms: _137  and  _138
REMARK   64  A    between atoms: _137  and  _140
REMARK   65  A    between atoms: _143  and  _145
REMARK   66  A    between atoms: _145  and  _146
REMARK   67  A    between atoms: _145  and  _148
REMARK   68  A    between atoms: _148  and  _149
REMARK   69  A    between atoms: _154  and  _155
REMARK   70  A    between atoms: _157  and  _159
REMARK   71  A    between atoms: _159  and  _160
REMARK   72  A    between atoms: _163  and  _165
REMARK   73  A    between atoms: _165  and  _166
REMARK   74  A    between atoms: _165  and  _168
REMARK   75  A    between atoms: _168  and  _169
REMARK   76  A    between atoms: _175  and  _177
REMARK   77  A    between atoms: _177  and  _178
REMARK   78  A    between atoms: _177  and  _180
REMARK   79  A    between atoms: _180  and  _181
REMARK   80  A    between atoms: _183  and  _185
REMARK   81  A    between atoms: _185  and  _186
REMARK   82  A    between atoms: _185  and  _188
REMARK   83  A    between atoms: _188  and  _189
REMARK   84  A    between atoms: _194  and  _196
REMARK   85  A    between atoms: _196  and  _197
REMARK   86  A    between atoms: _196  and  _199
REMARK   87  A    between atoms: _202  and  _204
REMARK   88  A    between atoms: _204  and  _205
REMARK   89  A    between atoms: _204  and  _207
REMARK   90  A    between atoms: _207  and  _208
REMARK   91  A    between atoms: _208  and  _209
REMARK   92  A    between atoms: _209  and  _210
REMARK   93  A    between atoms: _210  and  _211
REMARK   94  A    between atoms: _215  and  _217
REMARK   95  A    between atoms: _217  and  _218
REMARK   96  A    between atoms: _217  and  _220
REMARK   97  A    between atoms: _220  and  _221
REMARK   98  A    between atoms: _227  and  _229
REMARK   99  A    between atoms: _229  and  _230
REMARK  100  A    between atoms: _229  and  _232
REMARK  101  A    between atoms: _232  and  _233
REMARK  102  A    between atoms: _236  and  _238
REMARK  103  A    between atoms: _238  and  _239
REMARK  104  A    between atoms: _238  and  _241
REMARK  105  A    between atoms: _241  and  _242
REMARK  106  A    between atoms: _242  and  _243
REMARK  107  A    between atoms: _245  and  _247
REMARK  108  A    between atoms: _247  and  _248
REMARK  109  A    between atoms: _247  and  _250
REMARK  110  A    between atoms: _250  and  _251
REMARK  111  A    between atoms: _256  and  _258
REMARK  112  A    between atoms: _258  and  _259
REMARK  113  A    between atoms: _258  and  _261
REMARK  114  A    between atoms: _261  and  _262
REMARK  115  A    between atoms: _266  and  _267
REMARK  116  A    between atoms: _272  and  _274
REMARK  117  A    between atoms: _274  and  _275
REMARK  118  A    between atoms: _274  and  _277
REMARK  119  A    between atoms: _280  and  _282
REMARK  120  A    between atoms: _282  and  _283
REMARK  121  A    between atoms: _282  and  _285
REMARK  122  A    between atoms: _285  and  _286
REMARK  123  A    between atoms: _286  and  _287
REMARK  124  A    between atoms: _290  and  _292
REMARK  125  A    between atoms: _292  and  _293
REMARK  126  A    between atoms: _292  and  _295
REMARK  127  A    between atoms: _295  and  _296
REMARK  128  A    between atoms: _302  and  _304
REMARK  129  A    between atoms: _304  and  _305
REMARK  130  A    between atoms: _304  and  _307
REMARK  131  A    between atoms: _307  and  _308
REMARK  132  A    between atoms: _313  and  _314
REMARK  133  A    between atoms: _316  and  _318
REMARK  134  A    between atoms: _318  and  _319
REMARK  135  A    between atoms: _318  and  _321
REMARK  136  A    between atoms: _321  and  _322
REMARK  137  A    between atoms: _325  and  _327
REMARK  138  A    between atoms: _327  and  _328
REMARK  139  A    between atoms: _327  and  _330
REMARK  140  A    between atoms: _330  and  _331
REMARK  141  A    between atoms: _336  and  _338
REMARK  142  A    between atoms: _338  and  _339
REMARK  143  A    between atoms: _338  and  _341
REMARK  144  A    between atoms: _341  and  _342
REMARK  145  A    between atoms: _347  and  _348
REMARK  146  A    between atoms: _350  and  _352
REMARK  147  A    between atoms: _352  and  _353
REMARK  148  A    between atoms: _352  and  _355
REMARK  149  A    between atoms: _359  and  _360
REMARK  150  A    between atoms: _365  and  _367
REMARK  151  A    between atoms: _367  and  _368
REMARK  152  A    between atoms: _367  and  _370
REMARK  153  A    between atoms: _370  and  _371
REMARK  154  A    between atoms: _371  and  _372
REMARK  155  A    between atoms: _375  and  _377
REMARK  156  A    between atoms: _377  and  _378
REMARK  157  A    between atoms: _377  and  _380
REMARK  158  A    between atoms: _380  and  _381
REMARK  159  A    between atoms: _384  and  _386
REMARK  160  A    between atoms: _386  and  _387
REMARK  161  A    between atoms: _386  and  _389
REMARK  162  A    between atoms: _389  and  _390
REMARK  163  A    between atoms: _395  and  _397
REMARK  164  A    between atoms: _397  and  _398
REMARK  165  A    between atoms: _397  and  _400
REMARK  166  A    between atoms: _403  and  _405
REMARK  167  A    between atoms: _405  and  _406
REMARK  168  A    between atoms: _405  and  _408
REMARK  169  A    between atoms: _408  and  _409
REMARK  170  A    between atoms: _412  and  _414
REMARK  171  A    between atoms: _414  and  _415
REMARK  172  A    between atoms: _414  and  _417
REMARK  173  A    between atoms: _417  and  _418
REMARK  174  A    between atoms: _418  and  _419
REMARK  175  A    between atoms: _424  and  _426
REMARK  176  A    between atoms: _426  and  _427
REMARK  177  A    between atoms: _426  and  _429
REMARK  178  A    between atoms: _429  and  _430
REMARK  179  A    between atoms: _430  and  _431
REMARK  180  A    between atoms: _433  and  _435
REMARK  181  A    between atoms: _435  and  _436
REMARK  182  A    between atoms: _435  and  _438
REMARK  183  A    between atoms: _438  and  _439
REMARK  184  A    between atoms: _443  and  _444
REMARK  185  A    between atoms: _449  and  _451
REMARK  186  A    between atoms: _451  and  _452
REMARK  187  A    between atoms: _451  and  _454
REMARK  188  A    between atoms: _454  and  _455
REMARK  189  A    between atoms: _458  and  _460
REMARK  190  A    between atoms: _460  and  _461
REMARK  191  A    between atoms: _460  and  _463
REMARK  192  A    between atoms: _463  and  _464
REMARK  193  A    between atoms: _470  and  _472
REMARK  194  A    between atoms: _472  and  _473
REMARK  195  A    between atoms: _472  and  _475
REMARK  196  A    between atoms: _475  and  _476
REMARK  197  A    between atoms: _476  and  _477
REMARK  198  A    between atoms: _480  and  _482
REMARK  199  A    between atoms: _482  and  _483
REMARK  200  A    between atoms: _486  and  _488
REMARK  201  A    between atoms: _488  and  _489
REMARK  202  A    between atoms: _488  and  _491
REMARK  203  A    between atoms: _491  and  _492
REMARK  204  A    between atoms: _495  and  _497
REMARK  205  A    between atoms: _497  and  _498
REMARK  206  A    between atoms: _497  and  _500
REMARK  207  A    between atoms: _500  and  _501
REMARK  208  A    between atoms: _504  and  _506
REMARK  209  A    between atoms: _506  and  _507
REMARK  210  A    between atoms: _506  and  _509
REMARK  211  A    between atoms: _509  and  _510
REMARK  212  A    between atoms: _510  and  _511
REMARK  213  A    between atoms: _511  and  _512
REMARK  214  A    between atoms: _512  and  _513
REMARK  215  A    between atoms: _517  and  _519
REMARK  216  A    between atoms: _519  and  _520
REMARK  217  A    between atoms: _523  and  _525
REMARK  218  A    between atoms: _525  and  _526
REMARK  219  A    between atoms: _525  and  _528
REMARK  220  A    between atoms: _528  and  _529
REMARK  221  A    between atoms: _529  and  _530
REMARK  222  A    between atoms: _533  and  _535
REMARK  223  A    between atoms: _535  and  _536
REMARK  224  A    between atoms: _535  and  _538
REMARK  225  A    between atoms: _538  and  _539
REMARK  226  A    between atoms: _542  and  _544
REMARK  227  A    between atoms: _544  and  _545
REMARK  228  A    between atoms: _544  and  _547
REMARK  229  A    between atoms: _547  and  _548
REMARK  230  A    between atoms: _551  and  _553
REMARK  231  A    between atoms: _553  and  _554
REMARK  232  A    between atoms: _553  and  _556
REMARK  233  A    between atoms: _556  and  _557
REMARK  234  A    between atoms: _563  and  _565
REMARK  235  A    between atoms: _565  and  _566
REMARK  236  A    between atoms: _569  and  _571
REMARK  237  A    between atoms: _571  and  _572
REMARK  238  A    between atoms: _571  and  _574
REMARK  239  A    between atoms: _574  and  _575
REMARK  240  A    between atoms: _578  and  _580
REMARK  241  A    between atoms: _580  and  _581
REMARK  242  A    between atoms: _580  and  _583
REMARK  243  A    between atoms: _583  and  _584
REMARK  244  A    between atoms: _589  and  _591
REMARK  245  A    between atoms: _591  and  _592
REMARK  246  A    between atoms: _591  and  _594
REMARK  247  A    between atoms: _594  and  _595
REMARK                            x       y       z     vdW  Elec       q    Type
REMARK                         _______ _______ _______ _____ _____    ______ ____
ROOT
ATOM      1  O   HOH     1      14.939 -23.680   3.183  0.00  0.00    +0.000 OA
ENDROOT
TORSDOF 0
REMARK  Name = ../refined-set-2016/4q9o/4q9o_pocket.pdb
REMARK  247 active torsions:
REMARK  status: ('A' for Active; 'I' for Inactive)
REMARK    1  A    between atoms: _1  and  _3
REMARK    2  A    between atoms: _3  and  _4
REMARK    3  A    between atoms: _3  and  _6
REMARK    4  A    between atoms: _6  and  _7
REMARK    5  A    between atoms: _7  and  _8
REMARK    6  A    between atoms: _10  and  _12
REMARK    7  A    between atoms: _12  and  _13
REMARK    8  A    between atoms: _12  and  _15
REMARK    9  A    between atoms: _15  and  _16
REMARK   10  A    between atoms: _21  and  _23
REMARK   11  A    between atoms: _23  and  _24
REMARK   12  A    between atoms: _23  and  _26
REMARK   13  A    between atoms: _26  and  _27
REMARK   14  A    between atoms: _32  and  _34
REMARK   15  A    between atoms: _34  and  _35
REMARK   16  A    between atoms: _34  and  _37
REMARK   17  A    between atoms: _37  and  _38
REMARK   18  A    between atoms: _38  and  _39
REMARK   19  A    between atoms: _39  and  _40
REMARK   20  A    between atoms: _40  and  _41
REMARK   21  A    between atoms: _45  and  _47
REMARK   22  A    between atoms: _47  and  _48
REMARK   23  A    between atoms: _50  and  _52
REMARK   24  A    between atoms: _52  and  _53
REMARK   25  A    between atoms: _52  and  _55
REMARK   26  A    between atoms: _55  and  _56
REMARK   27  A    between atoms: _56  and  _57
REMARK   28  A    between atoms: _59  and  _61
REMARK   29  A    between atoms: _61  and  _62
REMARK   30  A    between atoms: _61  and  _64
REMARK   31  A    between atoms: _64  and  _65
REMARK   32  A    between atoms: _65  and  _66
REMARK   33  A    between atoms: _69  and  _71
REMARK   34  A    between atoms: _71  and  _72
REMARK   35  A    between atoms: _75  and  _77
REMARK   36  A    between atoms: _77  and  _78
REMARK   37  A    between atoms: _77  and  _80
REMARK   38  A    between atoms: _80  and  _81
REMARK   39  A    between atoms: _84  and  _86
REMARK   40  A    between atoms: _86  and  _87
REMARK   41  A    between atoms: _86  and  _89
REMARK   42  A    between atoms: _89  and  _90
REMARK   43  A    between atoms: _90  and  _91
REMARK   44  A    between atoms: _96  and  _98
REMARK   45  A    between atoms: _98  and  _99
REMARK   46  A    between atoms: _98  and  _101
REMARK   47  A    between atoms: _101  and  _102
REMARK   48  A    between atoms: _105  and  _107
REMARK   49  A    between atoms: _107  and  _108
REMARK   50  A    between atoms: _107  and  _110
REMARK   51  A    between atoms: _113  and  _115
REMARK   52  A    between atoms: _115  and  _116
REMARK   53  A    between atoms: _115  and  _118
REMARK   54  A    between atoms: _118  and  _119
REMARK   55  A    between atoms: _122  and  _124
REMARK   56  A    between atoms: _124  and  _125
REMARK   57  A    between atoms: _124  and  _127
REMARK   58  A    between atoms: _127  and  _128
REMARK   59  A    between atoms: _128  and  _129
REMARK   60  A    between atoms: _129  and  _130
REMARK   61  A    between atoms: _130  and  _131
REMARK   62  A    between atoms: _135  and  _137
REMARK   63  A    between atoms: _137  and  _138
REMARK   64  A    between atoms: _137  and  _140
REMARK   65  A    between atoms: _143  and  _145
REMARK   66  A    between atoms: _145  and  _146
REMARK   67  A    between atoms: _145  and  _148
REMARK   68  A    between atoms: _148  and  _149
REMARK   69  A    between atoms: _154  and  _155
REMARK   70  A    between atoms: _157  and  _159
REMARK   71  A    between atoms: _159  and  _160
REMARK   72  A    between atoms: _163  and  _165
REMARK   73  A    between atoms: _165  and  _166
REMARK   74  A    between atoms: _165  and  _168
REMARK   75  A    between atoms: _168  and  _169
REMARK   76  A    between atoms: _175  and  _177
REMARK   77  A    between atoms: _177  and  _178
REMARK   78  A    between atoms: _177  and  _180
REMARK   79  A    between atoms: _180  and  _181
REMARK   80  A    between atoms: _183  and  _185
REMARK   81  A    between atoms: _185  and  _186
REMARK   82  A    between atoms: _185  and  _188
REMARK   83  A    between atoms: _188  and  _189
REMARK   84  A    between atoms: _194  and  _196
REMARK   85  A    between atoms: _196  and  _197
REMARK   86  A    between atoms: _196  and  _199
REMARK   87  A    between atoms: _202  and  _204
REMARK   88  A    between atoms: _204  and  _205
REMARK   89  A    between atoms: _204  and  _207
REMARK   90  A    between atoms: _207  and  _208
REMARK   91  A    between atoms: _208  and  _209
REMARK   92  A    between atoms: _209  and  _210
REMARK   93  A    between atoms: _210  and  _211
REMARK   94  A    between atoms: _215  and  _217
REMARK   95  A    between atoms: _217  and  _218
REMARK   96  A    between atoms: _217  and  _220
REMARK   97  A    between atoms: _220  and  _221
REMARK   98  A    between atoms: _227  and  _229
REMARK   99  A    between atoms: _229  and  _230
REMARK  100  A    between atoms: _229  and  _232
REMARK  101  A    between atoms: _232  and  _233
REMARK  102  A    between atoms: _236  and  _238
REMARK  103  A    between atoms: _238  and  _239
REMARK  104  A    between atoms: _238  and  _241
REMARK  105  A    between atoms: _241  and  _242
REMARK  106  A    between atoms: _242  and  _243
REMARK  107  A    between atoms: _245  and  _247
REMARK  108  A    between atoms: _247  and  _248
REMARK  109  A    between atoms: _247  and  _250
REMARK  110  A    between atoms: _250  and  _251
REMARK  111  A    between atoms: _256  and  _258
REMARK  112  A    between atoms: _258  and  _259
REMARK  113  A    between atoms: _258  and  _261
REMARK  114  A    between atoms: _261  and  _262
REMARK  115  A    between atoms: _266  and  _267
REMARK  116  A    between atoms: _272  and  _274
REMARK  117  A    between atoms: _274  and  _275
REMARK  118  A    between atoms: _274  and  _277
REMARK  119  A    between atoms: _280  and  _282
REMARK  120  A    between atoms: _282  and  _283
REMARK  121  A    between atoms: _282  and  _285
REMARK  122  A    between atoms: _285  and  _286
REMARK  123  A    between atoms: _286  and  _287
REMARK  124  A    between atoms: _290  and  _292
REMARK  125  A    between atoms: _292  and  _293
REMARK  126  A    between atoms: _292  and  _295
REMARK  127  A    between atoms: _295  and  _296
REMARK  128  A    between atoms: _302  and  _304
REMARK  129  A    between atoms: _304  and  _305
REMARK  130  A    between atoms: _304  and  _307
REMARK  131  A    between atoms: _307  and  _308
REMARK  132  A    between atoms: _313  and  _314
REMARK  133  A    between atoms: _316  and  _318
REMARK  134  A    between atoms: _318  and  _319
REMARK  135  A    between atoms: _318  and  _321
REMARK  136  A    between atoms: _321  and  _322
REMARK  137  A    between atoms: _325  and  _327
REMARK  138  A    between atoms: _327  and  _328
REMARK  139  A    between atoms: _327  and  _330
REMARK  140  A    between atoms: _330  and  _331
REMARK  141  A    between atoms: _336  and  _338
REMARK  142  A    between atoms: _338  and  _339
REMARK  143  A    between atoms: _338  and  _341
REMARK  144  A    between atoms: _341  and  _342
REMARK  145  A    between atoms: _347  and  _348
REMARK  146  A    between atoms: _350  and  _352
REMARK  147  A    between atoms: _352  and  _353
REMARK  148  A    between atoms: _352  and  _355
REMARK  149  A    between atoms: _359  and  _360
REMARK  150  A    between atoms: _365  and  _367
REMARK  151  A    between atoms: _367  and  _368
REMARK  152  A    between atoms: _367  and  _370
REMARK  153  A    between atoms: _370  and  _371
REMARK  154  A    between atoms: _371  and  _372
REMARK  155  A    between atoms: _375  and  _377
REMARK  156  A    between atoms: _377  and  _378
REMARK  157  A    between atoms: _377  and  _380
REMARK  158  A    between atoms: _380  and  _381
REMARK  159  A    between atoms: _384  and  _386
REMARK  160  A    between atoms: _386  and  _387
REMARK  161  A    between atoms: _386  and  _389
REMARK  162  A    between atoms: _389  and  _390
REMARK  163  A    between atoms: _395  and  _397
REMARK  164  A    between atoms: _397  and  _398
REMARK  165  A    between atoms: _397  and  _400
REMARK  166  A    between atoms: _403  and  _405
REMARK  167  A    between atoms: _405  and  _406
REMARK  168  A    between atoms: _405  and  _408
REMARK  169  A    between atoms: _408  and  _409
REMARK  170  A    between atoms: _412  and  _414
REMARK  171  A    between atoms: _414  and  _415
REMARK  172  A    between atoms: _414  and  _417
REMARK  173  A    between atoms: _417  and  _418
REMARK  174  A    between atoms: _418  and  _419
REMARK  175  A    between atoms: _424  and  _426
REMARK  176  A    between atoms: _426  and  _427
REMARK  177  A    between atoms: _426  and  _429
REMARK  178  A    between atoms: _429  and  _430
REMARK  179  A    between atoms: _430  and  _431
REMARK  180  A    between atoms: _433  and  _435
REMARK  181  A    between atoms: _435  and  _436
REMARK  182  A    between atoms: _435  and  _438
REMARK  183  A    between atoms: _438  and  _439
REMARK  184  A    between atoms: _443  and  _444
REMARK  185  A    between atoms: _449  and  _451
REMARK  186  A    between atoms: _451  and  _452
REMARK  187  A    between atoms: _451  and  _454
REMARK  188  A    between atoms: _454  and  _455
REMARK  189  A    between atoms: _458  and  _460
REMARK  190  A    between atoms: _460  and  _461
REMARK  191  A    between atoms: _460  and  _463
REMARK  192  A    between atoms: _463  and  _464
REMARK  193  A    between atoms: _470  and  _472
REMARK  194  A    between atoms: _472  and  _473
REMARK  195  A    between atoms: _472  and  _475
REMARK  196  A    between atoms: _475  and  _476
REMARK  197  A    between atoms: _476  and  _477
REMARK  198  A    between atoms: _480  and  _482
REMARK  199  A    between atoms: _482  and  _483
REMARK  200  A    between atoms: _486  and  _488
REMARK  201  A    between atoms: _488  and  _489
REMARK  202  A    between atoms: _488  and  _491
REMARK  203  A    between atoms: _491  and  _492
REMARK  204  A    between atoms: _495  and  _497
REMARK  205  A    between atoms: _497  and  _498
REMARK  206  A    between atoms: _497  and  _500
REMARK  207  A    between atoms: _500  and  _501
REMARK  208  A    between atoms: _504  and  _506
REMARK  209  A    between atoms: _506  and  _507
REMARK  210  A    between atoms: _506  and  _509
REMARK  211  A    between atoms: _509  and  _510
REMARK  212  A    between atoms: _510  and  _511
REMARK  213  A    between atoms: _511  and  _512
REMARK  214  A    between atoms: _512  and  _513
REMARK  215  A    between atoms: _517  and  _519
REMARK  216  A    between atoms: _519  and  _520
REMARK  217  A    between atoms: _523  and  _525
REMARK  218  A    between atoms: _525  and  _526
REMARK  219  A    between atoms: _525  and  _528
REMARK  220  A    between atoms: _528  and  _529
REMARK  221  A    between atoms: _529  and  _530
REMARK  222  A    between atoms: _533  and  _535
REMARK  223  A    between atoms: _535  and  _536
REMARK  224  A    between atoms: _535  and  _538
REMARK  225  A    between atoms: _538  and  _539
REMARK  226  A    between atoms: _542  and  _544
REMARK  227  A    between atoms: _544  and  _545
REMARK  228  A    between atoms: _544  and  _547
REMARK  229  A    between atoms: _547  and  _548
REMARK  230  A    between atoms: _551  and  _553
REMARK  231  A    between atoms: _553  and  _554
REMARK  232  A    between atoms: _553  and  _556
REMARK  233  A    between atoms: _556  and  _557
REMARK  234  A    between atoms: _563  and  _565
REMARK  235  A    between atoms: _565  and  _566
REMARK  236  A    between atoms: _569  and  _571
REMARK  237  A    between atoms: _571  and  _572
REMARK  238  A    between atoms: _571  and  _574
REMARK  239  A    between atoms: _574  and  _575
REMARK  240  A    between atoms: _578  and  _580
REMARK  241  A    between atoms: _580  and  _581
REMARK  242  A    between atoms: _580  and  _583
REMARK  243  A    between atoms: _583  and  _584
REMARK  244  A    between atoms: _589  and  _591
REMARK  245  A    between atoms: _591  and  _592
REMARK  246  A    between atoms: _591  and  _594
REMARK  247  A    between atoms: _594  and  _595
REMARK                            x       y       z     vdW  Elec       q    Type
REMARK                         _______ _______ _______ _____ _____    ______ ____
ROOT
ATOM      1  O   HOH     1      24.402  -5.453   9.568  0.00  0.00    +0.000 OA
ENDROOT
TORSDOF 0
