REMARK  Name = ../refined-set-2016/3g2z/3g2z_pocket.pdb
REMARK  140 active torsions:
REMARK  status: ('A' for Active; 'I' for Inactive)
REMARK    1  A    between atoms: _1  and  _3
REMARK    2  A    between atoms: _3  and  _4
REMARK    3  A    between atoms: _3  and  _6
REMARK    4  A    between atoms: _6  and  _7
REMARK    5  A    between atoms: _7  and  _8
REMARK    6  A    between atoms: _10  and  _12
REMARK    7  A    between atoms: _12  and  _13
REMARK    8  A    between atoms: _12  and  _15
REMARK    9  A    between atoms: _17  and  _19
REMARK   10  A    between atoms: _19  and  _20
REMARK   11  A    between atoms: _19  and  _22
REMARK   12  A    between atoms: _22  and  _23
REMARK   13  A    between atoms: _25  and  _27
REMARK   14  A    between atoms: _27  and  _28
REMARK   15  A    between atoms: _27  and  _30
REMARK   16  A    between atoms: _30  and  _31
REMARK   17  A    between atoms: _34  and  _36
REMARK   18  A    between atoms: _36  and  _37
REMARK   19  A    between atoms: _36  and  _39
REMARK   20  A    between atoms: _39  and  _40
REMARK   21  A    between atoms: _40  and  _41
REMARK   22  A    between atoms: _41  and  _42
REMARK   23  A    between atoms: _42  and  _43
REMARK   24  A    between atoms: _47  and  _49
REMARK   25  A    between atoms: _49  and  _50
REMARK   26  A    between atoms: _49  and  _52
REMARK   27  A    between atoms: _55  and  _57
REMARK   28  A    between atoms: _57  and  _58
REMARK   29  A    between atoms: _57  and  _60
REMARK   30  A    between atoms: _60  and  _61
REMARK   31  A    between atoms: _66  and  _68
REMARK   32  A    between atoms: _68  and  _69
REMARK   33  A    between atoms: _68  and  _71
REMARK   34  A    between atoms: _71  and  _72
REMARK   35  A    between atoms: _77  and  _78
REMARK   36  A    between atoms: _80  and  _82
REMARK   37  A    between atoms: _82  and  _83
REMARK   38  A    between atoms: _82  and  _85
REMARK   39  A    between atoms: _85  and  _86
REMARK   40  A    between atoms: _92  and  _93
REMARK   41  A    between atoms: _98  and  _100
REMARK   42  A    between atoms: _100  and  _101
REMARK   43  A    between atoms: _104  and  _106
REMARK   44  A    between atoms: _106  and  _107
REMARK   45  A    between atoms: _106  and  _109
REMARK   46  A    between atoms: _109  and  _110
REMARK   47  A    between atoms: _113  and  _115
REMARK   48  A    between atoms: _115  and  _116
REMARK   49  A    between atoms: _115  and  _118
REMARK   50  A    between atoms: _118  and  _119
REMARK   51  A    between atoms: _124  and  _125
REMARK   52  A    between atoms: _127  and  _129
REMARK   53  A    between atoms: _129  and  _130
REMARK   54  A    between atoms: _129  and  _132
REMARK   55  A    between atoms: _132  and  _133
REMARK   56  A    between atoms: _135  and  _137
REMARK   57  A    between atoms: _137  and  _138
REMARK   58  A    between atoms: _137  and  _140
REMARK   59  A    between atoms: _140  and  _141
REMARK   60  A    between atoms: _144  and  _146
REMARK   61  A    between atoms: _146  and  _147
REMARK   62  A    between atoms: _146  and  _149
REMARK   63  A    between atoms: _149  and  _150
REMARK   64  A    between atoms: _155  and  _157
REMARK   65  A    between atoms: _157  and  _158
REMARK   66  A    between atoms: _157  and  _160
REMARK   67  A    between atoms: _160  and  _161
REMARK   68  A    between atoms: _161  and  _162
REMARK   69  A    between atoms: _166  and  _167
REMARK   70  A    between atoms: _172  and  _174
REMARK   71  A    between atoms: _174  and  _175
REMARK   72  A    between atoms: _174  and  _177
REMARK   73  A    between atoms: _177  and  _178
REMARK   74  A    between atoms: _183  and  _185
REMARK   75  A    between atoms: _185  and  _186
REMARK   76  A    between atoms: _185  and  _188
REMARK   77  A    between atoms: _188  and  _189
REMARK   78  A    between atoms: _194  and  _196
REMARK   79  A    between atoms: _196  and  _197
REMARK   80  A    between atoms: _196  and  _199
REMARK   81  A    between atoms: _199  and  _200
REMARK   82  A    between atoms: _203  and  _205
REMARK   83  A    between atoms: _205  and  _206
REMARK   84  A    between atoms: _208  and  _210
REMARK   85  A    between atoms: _210  and  _211
REMARK   86  A    between atoms: _210  and  _213
REMARK   87  A    between atoms: _213  and  _214
REMARK   88  A    between atoms: _216  and  _218
REMARK   89  A    between atoms: _218  and  _219
REMARK   90  A    between atoms: _218  and  _221
REMARK   91  A    between atoms: _221  and  _222
REMARK   92  A    between atoms: _225  and  _227
REMARK   93  A    between atoms: _227  and  _228
REMARK   94  A    between atoms: _227  and  _230
REMARK   95  A    between atoms: _230  and  _231
REMARK   96  A    between atoms: _231  and  _232
REMARK   97  A    between atoms: _232  and  _233
REMARK   98  A    between atoms: _233  and  _234
REMARK   99  A    between atoms: _238  and  _240
REMARK  100  A    between atoms: _240  and  _241
REMARK  101  A    between atoms: _240  and  _243
REMARK  102  A    between atoms: _243  and  _244
REMARK  103  A    between atoms: _247  and  _249
REMARK  104  A    between atoms: _249  and  _250
REMARK  105  A    between atoms: _252  and  _254
REMARK  106  A    between atoms: _254  and  _255
REMARK  107  A    between atoms: _254  and  _257
REMARK  108  A    between atoms: _257  and  _258
REMARK  109  A    between atoms: _260  and  _262
REMARK  110  A    between atoms: _262  and  _263
REMARK  111  A    between atoms: _265  and  _267
REMARK  112  A    between atoms: _267  and  _268
REMARK  113  A    between atoms: _267  and  _270
REMARK  114  A    between atoms: _270  and  _271
REMARK  115  A    between atoms: _274  and  _276
REMARK  116  A    between atoms: _276  and  _277
REMARK  117  A    between atoms: _276  and  _279
REMARK  118  A    between atoms: _279  and  _280
REMARK  119  A    between atoms: _283  and  _285
REMARK  120  A    between atoms: _285  and  _286
REMARK  121  A    between atoms: _285  and  _288
REMARK  122  A    between atoms: _288  and  _289
REMARK  123  A    between atoms: _294  and  _296
REMARK  124  A    between atoms: _296  and  _297
REMARK  125  A    between atoms: _296  and  _299
REMARK  126  A    between atoms: _299  and  _300
REMARK  127  A    between atoms: _303  and  _305
REMARK  128  A    between atoms: _305  and  _306
REMARK  129  A    between atoms: _305  and  _308
REMARK  130  A    between atoms: _308  and  _309
REMARK  131  A    between atoms: _311  and  _313
REMARK  132  A    between atoms: _313  and  _314
REMARK  133  A    between atoms: _313  and  _316
REMARK  134  A    between atoms: _316  and  _317
REMARK  135  A    between atoms: _317  and  _318
REMARK  136  A    between atoms: _318  and  _319
REMARK  137  A    between atoms: _328  and  _330
REMARK  138  A    between atoms: _330  and  _331
REMARK  139  A    between atoms: _330  and  _333
REMARK  140  A    between atoms: _333  and  _334
REMARK                            x       y       z     vdW  Elec       q    Type
REMARK                         _______ _______ _______ _____ _____    ______ ____
ROOT
ATOM      1  C   CYS A   2      -2.655  59.820  15.402  0.00  0.00    +0.242 C 
ATOM      2  O   CYS A   2      -2.371  60.370  16.470  0.00  0.00    -0.273 OA
ATOM      3  N   SER A   3      -2.443  58.522  15.193  0.00  0.00    -0.295 N 
ATOM      4  H   SER A   3      -2.585  58.113  14.247  0.00  0.00    +0.150 HD
ENDROOT
BRANCH   3   5
ATOM      5  CA  SER A   3      -2.006  57.670  16.313  0.00  0.00    +0.178 C 
BRANCH   5   6
ATOM      6  C   SER A   3      -0.618  57.951  16.881  0.00  0.00    +0.243 C 
ATOM      7  O   SER A   3      -0.260  57.384  17.929  0.00  0.00    -0.273 OA
ATOM      8  N   THR A   4       0.160  58.824  16.227  0.00  0.00    -0.296 N 
ATOM      9  H   THR A   4      -0.158  59.247  15.332  0.00  0.00    +0.150 HD
BRANCH   8  10
ATOM     10  CA  THR A   4       1.467  59.174  16.794  0.00  0.00    +0.164 C 
BRANCH  10  11
ATOM     11  CB  THR A   4       2.404  59.953  15.823  0.00  0.00    +0.136 C 
ATOM     12  CG2 THR A   4       2.626  59.185  14.514  0.00  0.00    +0.034 C 
BRANCH  11  13
ATOM     13  OG1 THR A   4       1.890  61.267  15.560  0.00  0.00    -0.382 OA
ATOM     14  HG1 THR A   4       0.993  61.193  15.147  0.00  0.00    +0.210 HD
ENDBRANCH  11  13
ENDBRANCH  10  11
BRANCH  10  15
ATOM     15  C   THR A   4       1.278  59.902  18.138  0.00  0.00    +0.229 C 
ATOM     16  O   THR A   4       2.169  59.879  18.990  0.00  0.00    -0.286 OA
ENDBRANCH  10  15
ENDBRANCH   8  10
ENDBRANCH   5   6
BRANCH   5  17
ATOM     17  CB  SER A   3      -2.159  56.172  16.005  0.00  0.00    +0.166 C 
BRANCH  17  18
ATOM     18  OG  SER A   3      -3.519  55.783  16.134  0.00  0.00    -0.380 OA
ATOM     19  H   SER A   3      -4.072  56.304  15.499  0.00  0.00    +0.211 HD
ENDBRANCH  17  18
ENDBRANCH   5  17
ENDBRANCH   3   5
BRANCH   1  20
ATOM     20  CA  CYS A   2      -3.270  60.656  14.277  0.00  0.00    +0.160 C 
BRANCH  20  22
ATOM     21  C   MET A   1      -1.272  62.071  14.253  0.00  0.00    +0.238 C 
ATOM     22  N   CYS A   2      -2.597  61.957  14.243  0.00  0.00    -0.297 N 
ATOM     23  H   CYS A   2      -3.175  62.821  14.210  0.00  0.00    +0.150 HD
ATOM     24  O   MET A   1      -0.502  61.097  14.195  0.00  0.00    -0.274 OA
BRANCH  21  25
ATOM     25  CA  MET A   1      -0.725  63.484  14.421  0.00  0.00    +0.146 C 
BRANCH  25  26
ATOM     26  N   MET A   1      -1.567  64.519  13.820  0.00  0.00    -0.238 NA
ATOM     27  H   MET A   1      -2.166  65.120  14.421  0.00  0.00    +0.142 HD
ENDBRANCH  25  26
BRANCH  25  28
ATOM     28  CB  MET A   1      -0.578  63.746  15.911  0.00  0.00    +0.038 C 
BRANCH  28  29
ATOM     29  CG  MET A   1       0.221  64.973  16.232  0.00  0.00    +0.060 C 
BRANCH  29  30
ATOM     30  SD  MET A   1       0.382  65.201  18.003  0.00  0.00    -0.139 S 
ATOM     31  CE  MET A   1      -1.208  65.922  18.428  0.00  0.00    +0.069 C 
ENDBRANCH  29  30
ENDBRANCH  28  29
ENDBRANCH  25  28
ENDBRANCH  21  25
ENDBRANCH  20  22
BRANCH  20  32
ATOM     32  CB  CYS A   2      -3.233  59.980  12.898  0.00  0.00    +0.098 C 
ATOM     33  SG  CYS A   2      -3.957  61.024  11.597  0.00  0.00    -0.080 S 
ENDBRANCH  20  32
ENDBRANCH   1  20
TORSDOF 16
REMARK  Name = ../refined-set-2016/3g2z/3g2z_pocket.pdb
REMARK  140 active torsions:
REMARK  status: ('A' for Active; 'I' for Inactive)
REMARK    1  A    between atoms: _1  and  _3
REMARK    2  A    between atoms: _3  and  _4
REMARK    3  A    between atoms: _3  and  _6
REMARK    4  A    between atoms: _6  and  _7
REMARK    5  A    between atoms: _7  and  _8
REMARK    6  A    between atoms: _10  and  _12
REMARK    7  A    between atoms: _12  and  _13
REMARK    8  A    between atoms: _12  and  _15
REMARK    9  A    between atoms: _17  and  _19
REMARK   10  A    between atoms: _19  and  _20
REMARK   11  A    between atoms: _19  and  _22
REMARK   12  A    between atoms: _22  and  _23
REMARK   13  A    between atoms: _25  and  _27
REMARK   14  A    between atoms: _27  and  _28
REMARK   15  A    between atoms: _27  and  _30
REMARK   16  A    between atoms: _30  and  _31
REMARK   17  A    between atoms: _34  and  _36
REMARK   18  A    between atoms: _36  and  _37
REMARK   19  A    between atoms: _36  and  _39
REMARK   20  A    between atoms: _39  and  _40
REMARK   21  A    between atoms: _40  and  _41
REMARK   22  A    between atoms: _41  and  _42
REMARK   23  A    between atoms: _42  and  _43
REMARK   24  A    between atoms: _47  and  _49
REMARK   25  A    between atoms: _49  and  _50
REMARK   26  A    between atoms: _49  and  _52
REMARK   27  A    between atoms: _55  and  _57
REMARK   28  A    between atoms: _57  and  _58
REMARK   29  A    between atoms: _57  and  _60
REMARK   30  A    between atoms: _60  and  _61
REMARK   31  A    between atoms: _66  and  _68
REMARK   32  A    between atoms: _68  and  _69
REMARK   33  A    between atoms: _68  and  _71
REMARK   34  A    between atoms: _71  and  _72
REMARK   35  A    between atoms: _77  and  _78
REMARK   36  A    between atoms: _80  and  _82
REMARK   37  A    between atoms: _82  and  _83
REMARK   38  A    between atoms: _82  and  _85
REMARK   39  A    between atoms: _85  and  _86
REMARK   40  A    between atoms: _92  and  _93
REMARK   41  A    between atoms: _98  and  _100
REMARK   42  A    between atoms: _100  and  _101
REMARK   43  A    between atoms: _104  and  _106
REMARK   44  A    between atoms: _106  and  _107
REMARK   45  A    between atoms: _106  and  _109
REMARK   46  A    between atoms: _109  and  _110
REMARK   47  A    between atoms: _113  and  _115
REMARK   48  A    between atoms: _115  and  _116
REMARK   49  A    between atoms: _115  and  _118
REMARK   50  A    between atoms: _118  and  _119
REMARK   51  A    between atoms: _124  and  _125
REMARK   52  A    between atoms: _127  and  _129
REMARK   53  A    between atoms: _129  and  _130
REMARK   54  A    between atoms: _129  and  _132
REMARK   55  A    between atoms: _132  and  _133
REMARK   56  A    between atoms: _135  and  _137
REMARK   57  A    between atoms: _137  and  _138
REMARK   58  A    between atoms: _137  and  _140
REMARK   59  A    between atoms: _140  and  _141
REMARK   60  A    between atoms: _144  and  _146
REMARK   61  A    between atoms: _146  and  _147
REMARK   62  A    between atoms: _146  and  _149
REMARK   63  A    between atoms: _149  and  _150
REMARK   64  A    between atoms: _155  and  _157
REMARK   65  A    between atoms: _157  and  _158
REMARK   66  A    between atoms: _157  and  _160
REMARK   67  A    between atoms: _160  and  _161
REMARK   68  A    between atoms: _161  and  _162
REMARK   69  A    between atoms: _166  and  _167
REMARK   70  A    between atoms: _172  and  _174
REMARK   71  A    between atoms: _174  and  _175
REMARK   72  A    between atoms: _174  and  _177
REMARK   73  A    between atoms: _177  and  _178
REMARK   74  A    between atoms: _183  and  _185
REMARK   75  A    between atoms: _185  and  _186
REMARK   76  A    between atoms: _185  and  _188
REMARK   77  A    between atoms: _188  and  _189
REMARK   78  A    between atoms: _194  and  _196
REMARK   79  A    between atoms: _196  and  _197
REMARK   80  A    between atoms: _196  and  _199
REMARK   81  A    between atoms: _199  and  _200
REMARK   82  A    between atoms: _203  and  _205
REMARK   83  A    between atoms: _205  and  _206
REMARK   84  A    between atoms: _208  and  _210
REMARK   85  A    between atoms: _210  and  _211
REMARK   86  A    between atoms: _210  and  _213
REMARK   87  A    between atoms: _213  and  _214
REMARK   88  A    between atoms: _216  and  _218
REMARK   89  A    between atoms: _218  and  _219
REMARK   90  A    between atoms: _218  and  _221
REMARK   91  A    between atoms: _221  and  _222
REMARK   92  A    between atoms: _225  and  _227
REMARK   93  A    between atoms: _227  and  _228
REMARK   94  A    between atoms: _227  and  _230
REMARK   95  A    between atoms: _230  and  _231
REMARK   96  A    between atoms: _231  and  _232
REMARK   97  A    between atoms: _232  and  _233
REMARK   98  A    between atoms: _233  and  _234
REMARK   99  A    between atoms: _238  and  _240
REMARK  100  A    between atoms: _240  and  _241
REMARK  101  A    between atoms: _240  and  _243
REMARK  102  A    between atoms: _243  and  _244
REMARK  103  A    between atoms: _247  and  _249
REMARK  104  A    between atoms: _249  and  _250
REMARK  105  A    between atoms: _252  and  _254
REMARK  106  A    between atoms: _254  and  _255
REMARK  107  A    between atoms: _254  and  _257
REMARK  108  A    between atoms: _257  and  _258
REMARK  109  A    between atoms: _260  and  _262
REMARK  110  A    between atoms: _262  and  _263
REMARK  111  A    between atoms: _265  and  _267
REMARK  112  A    between atoms: _267  and  _268
REMARK  113  A    between atoms: _267  and  _270
REMARK  114  A    between atoms: _270  and  _271
REMARK  115  A    between atoms: _274  and  _276
REMARK  116  A    between atoms: _276  and  _277
REMARK  117  A    between atoms: _276  and  _279
REMARK  118  A    between atoms: _279  and  _280
REMARK  119  A    between atoms: _283  and  _285
REMARK  120  A    between atoms: _285  and  _286
REMARK  121  A    between atoms: _285  and  _288
REMARK  122  A    between atoms: _288  and  _289
REMARK  123  A    between atoms: _294  and  _296
REMARK  124  A    between atoms: _296  and  _297
REMARK  125  A    between atoms: _296  and  _299
REMARK  126  A    between atoms: _299  and  _300
REMARK  127  A    between atoms: _303  and  _305
REMARK  128  A    between atoms: _305  and  _306
REMARK  129  A    between atoms: _305  and  _308
REMARK  130  A    between atoms: _308  and  _309
REMARK  131  A    between atoms: _311  and  _313
REMARK  132  A    between atoms: _313  and  _314
REMARK  133  A    between atoms: _313  and  _316
REMARK  134  A    between atoms: _316  and  _317
REMARK  135  A    between atoms: _317  and  _318
REMARK  136  A    between atoms: _318  and  _319
REMARK  137  A    between atoms: _328  and  _330
REMARK  138  A    between atoms: _330  and  _331
REMARK  139  A    between atoms: _330  and  _333
REMARK  140  A    between atoms: _333  and  _334
REMARK                            x       y       z     vdW  Elec       q    Type
REMARK                         _______ _______ _______ _____ _____    ______ ____
ROOT
ATOM      1  CG  LYS A   1      -2.159  56.257  20.472  0.00  0.00    -0.000 C 
ENDROOT
BRANCH   1   2
ATOM      2  CB  LYS A   1      -0.719  56.440  20.964  0.00  0.00    +0.025 C 
BRANCH   2   3
ATOM      3  CA  LYS A   1      -0.427  57.832  21.535  0.00  0.00    +0.133 C 
BRANCH   3   4
ATOM      4  N   LYS A   1      -0.418  58.862  20.487  0.00  0.00    -0.239 NA
ATOM      5  H   LYS A   1      -0.505  58.577  19.491  0.00  0.00    +0.142 HD
ENDBRANCH   3   4
BRANCH   3   6
ATOM      6  C   LYS A   1       0.851  57.828  22.356  0.00  0.00    +0.224 C 
ATOM      7  O   LYS A   1       0.816  57.491  23.529  0.00  0.00    -0.287 OA
ENDBRANCH   3   6
ENDBRANCH   2   3
ENDBRANCH   1   2
BRANCH   1   8
ATOM      8  CD  LYS A   1      -2.321  54.956  19.697  0.00  0.00    -0.024 C 
BRANCH   8   9
ATOM      9  CE  LYS A   1      -3.765  54.592  19.451  0.00  0.00    -0.086 C 
BRANCH   9  10
ATOM     10  NZ  LYS A   1      -4.441  55.604  18.588  0.00  0.00    +0.380 N 
ATOM     11  HZ1 LYS A   1      -4.409  56.533  19.055  0.00  0.00    -0.089 HD
ATOM     12  HZ2 LYS A   1      -5.431  55.324  18.438  0.00  0.00    -0.089 HD
ATOM     13  HZ3 LYS A   1      -3.952  55.658  17.671  0.00  0.00    -0.089 HD
ENDBRANCH   9  10
ENDBRANCH   8   9
ENDBRANCH   1   8
TORSDOF 7
REMARK  Name = ../refined-set-2016/3g2z/3g2z_pocket.pdb
REMARK  140 active torsions:
REMARK  status: ('A' for Active; 'I' for Inactive)
REMARK    1  A    between atoms: _1  and  _3
REMARK    2  A    between atoms: _3  and  _4
REMARK    3  A    between atoms: _3  and  _6
REMARK    4  A    between atoms: _6  and  _7
REMARK    5  A    between atoms: _7  and  _8
REMARK    6  A    between atoms: _10  and  _12
REMARK    7  A    between atoms: _12  and  _13
REMARK    8  A    between atoms: _12  and  _15
REMARK    9  A    between atoms: _17  and  _19
REMARK   10  A    between atoms: _19  and  _20
REMARK   11  A    between atoms: _19  and  _22
REMARK   12  A    between atoms: _22  and  _23
REMARK   13  A    between atoms: _25  and  _27
REMARK   14  A    between atoms: _27  and  _28
REMARK   15  A    between atoms: _27  and  _30
REMARK   16  A    between atoms: _30  and  _31
REMARK   17  A    between atoms: _34  and  _36
REMARK   18  A    between atoms: _36  and  _37
REMARK   19  A    between atoms: _36  and  _39
REMARK   20  A    between atoms: _39  and  _40
REMARK   21  A    between atoms: _40  and  _41
REMARK   22  A    between atoms: _41  and  _42
REMARK   23  A    between atoms: _42  and  _43
REMARK   24  A    between atoms: _47  and  _49
REMARK   25  A    between atoms: _49  and  _50
REMARK   26  A    between atoms: _49  and  _52
REMARK   27  A    between atoms: _55  and  _57
REMARK   28  A    between atoms: _57  and  _58
REMARK   29  A    between atoms: _57  and  _60
REMARK   30  A    between atoms: _60  and  _61
REMARK   31  A    between atoms: _66  and  _68
REMARK   32  A    between atoms: _68  and  _69
REMARK   33  A    between atoms: _68  and  _71
REMARK   34  A    between atoms: _71  and  _72
REMARK   35  A    between atoms: _77  and  _78
REMARK   36  A    between atoms: _80  and  _82
REMARK   37  A    between atoms: _82  and  _83
REMARK   38  A    between atoms: _82  and  _85
REMARK   39  A    between atoms: _85  and  _86
REMARK   40  A    between atoms: _92  and  _93
REMARK   41  A    between atoms: _98  and  _100
REMARK   42  A    between atoms: _100  and  _101
REMARK   43  A    between atoms: _104  and  _106
REMARK   44  A    between atoms: _106  and  _107
REMARK   45  A    between atoms: _106  and  _109
REMARK   46  A    between atoms: _109  and  _110
REMARK   47  A    between atoms: _113  and  _115
REMARK   48  A    between atoms: _115  and  _116
REMARK   49  A    between atoms: _115  and  _118
REMARK   50  A    between atoms: _118  and  _119
REMARK   51  A    between atoms: _124  and  _125
REMARK   52  A    between atoms: _127  and  _129
REMARK   53  A    between atoms: _129  and  _130
REMARK   54  A    between atoms: _129  and  _132
REMARK   55  A    between atoms: _132  and  _133
REMARK   56  A    between atoms: _135  and  _137
REMARK   57  A    between atoms: _137  and  _138
REMARK   58  A    between atoms: _137  and  _140
REMARK   59  A    between atoms: _140  and  _141
REMARK   60  A    between atoms: _144  and  _146
REMARK   61  A    between atoms: _146  and  _147
REMARK   62  A    between atoms: _146  and  _149
REMARK   63  A    between atoms: _149  and  _150
REMARK   64  A    between atoms: _155  and  _157
REMARK   65  A    between atoms: _157  and  _158
REMARK   66  A    between atoms: _157  and  _160
REMARK   67  A    between atoms: _160  and  _161
REMARK   68  A    between atoms: _161  and  _162
REMARK   69  A    between atoms: _166  and  _167
REMARK   70  A    between atoms: _172  and  _174
REMARK   71  A    between atoms: _174  and  _175
REMARK   72  A    between atoms: _174  and  _177
REMARK   73  A    between atoms: _177  and  _178
REMARK   74  A    between atoms: _183  and  _185
REMARK   75  A    between atoms: _185  and  _186
REMARK   76  A    between atoms: _185  and  _188
REMARK   77  A    between atoms: _188  and  _189
REMARK   78  A    between atoms: _194  and  _196
REMARK   79  A    between atoms: _196  and  _197
REMARK   80  A    between atoms: _196  and  _199
REMARK   81  A    between atoms: _199  and  _200
REMARK   82  A    between atoms: _203  and  _205
REMARK   83  A    between atoms: _205  and  _206
REMARK   84  A    between atoms: _208  and  _210
REMARK   85  A    between atoms: _210  and  _211
REMARK   86  A    between atoms: _210  and  _213
REMARK   87  A    between atoms: _213  and  _214
REMARK   88  A    between atoms: _216  and  _218
REMARK   89  A    between atoms: _218  and  _219
REMARK   90  A    between atoms: _218  and  _221
REMARK   91  A    between atoms: _221  and  _222
REMARK   92  A    between atoms: _225  and  _227
REMARK   93  A    between atoms: _227  and  _228
REMARK   94  A    between atoms: _227  and  _230
REMARK   95  A    between atoms: _230  and  _231
REMARK   96  A    between atoms: _231  and  _232
REMARK   97  A    between atoms: _232  and  _233
REMARK   98  A    between atoms: _233  and  _234
REMARK   99  A    between atoms: _238  and  _240
REMARK  100  A    between atoms: _240  and  _241
REMARK  101  A    between atoms: _240  and  _243
REMARK  102  A    between atoms: _243  and  _244
REMARK  103  A    between atoms: _247  and  _249
REMARK  104  A    between atoms: _249  and  _250
REMARK  105  A    between atoms: _252  and  _254
REMARK  106  A    between atoms: _254  and  _255
REMARK  107  A    between atoms: _254  and  _257
REMARK  108  A    between atoms: _257  and  _258
REMARK  109  A    between atoms: _260  and  _262
REMARK  110  A    between atoms: _262  and  _263
REMARK  111  A    between atoms: _265  and  _267
REMARK  112  A    between atoms: _267  and  _268
REMARK  113  A    between atoms: _267  and  _270
REMARK  114  A    between atoms: _270  and  _271
REMARK  115  A    between atoms: _274  and  _276
REMARK  116  A    between atoms: _276  and  _277
REMARK  117  A    between atoms: _276  and  _279
REMARK  118  A    between atoms: _279  and  _280
REMARK  119  A    between atoms: _283  and  _285
REMARK  120  A    between atoms: _285  and  _286
REMARK  121  A    between atoms: _285  and  _288
REMARK  122  A    between atoms: _288  and  _289
REMARK  123  A    between atoms: _294  and  _296
REMARK  124  A    between atoms: _296  and  _297
REMARK  125  A    between atoms: _296  and  _299
REMARK  126  A    between atoms: _299  and  _300
REMARK  127  A    between atoms: _303  and  _305
REMARK  128  A    between atoms: _305  and  _306
REMARK  129  A    between atoms: _305  and  _308
REMARK  130  A    between atoms: _308  and  _309
REMARK  131  A    between atoms: _311  and  _313
REMARK  132  A    between atoms: _313  and  _314
REMARK  133  A    between atoms: _313  and  _316
REMARK  134  A    between atoms: _316  and  _317
REMARK  135  A    between atoms: _317  and  _318
REMARK  136  A    between atoms: _318  and  _319
REMARK  137  A    between atoms: _328  and  _330
REMARK  138  A    between atoms: _330  and  _331
REMARK  139  A    between atoms: _330  and  _333
REMARK  140  A    between atoms: _333  and  _334
REMARK                            x       y       z     vdW  Elec       q    Type
REMARK                         _______ _______ _______ _____ _____    ______ ____
ROOT
ATOM      1  CA  TYR A   3     -10.006  49.911  15.879  0.00  0.00    +0.153 C 
ENDROOT
BRANCH   1   3
ATOM      2  C   ASN A   2     -12.038  50.917  15.023  0.00  0.00    +0.241 C 
ATOM      3  N   TYR A   3     -11.176  50.757  16.023  0.00  0.00    -0.297 N 
ATOM      4  H   TYR A   3     -11.344  51.247  16.925  0.00  0.00    +0.150 HD
ATOM      5  O   ASN A   2     -11.919  50.334  13.939  0.00  0.00    -0.273 OA
BRANCH   2   6
ATOM      6  CA  ASN A   2     -13.199  51.886  15.252  0.00  0.00    +0.158 C 
BRANCH   6   9
ATOM      7  C   VAL A   1     -14.146  51.771  17.505  0.00  0.00    +0.238 C 
ATOM      8  O   VAL A   1     -14.605  50.636  17.317  0.00  0.00    -0.274 OA
ATOM      9  N   ASN A   2     -13.363  52.383  16.620  0.00  0.00    -0.297 N 
ATOM     10  H   ASN A   2     -12.851  53.241  16.909  0.00  0.00    +0.150 HD
BRANCH   7  11
ATOM     11  CA  VAL A   1     -14.479  52.511  18.809  0.00  0.00    +0.145 C 
BRANCH  11  12
ATOM     12  CB  VAL A   1     -13.685  53.836  19.071  0.00  0.00    +0.025 C 
ATOM     13  CG2 VAL A   1     -14.390  54.669  20.148  0.00  0.00    +0.002 C 
ATOM     14  CG1 VAL A   1     -12.239  53.563  19.479  0.00  0.00    +0.002 C 
ENDBRANCH  11  12
BRANCH  11  15
ATOM     15  N   VAL A   1     -14.415  51.590  19.934  0.00  0.00    -0.238 NA
ATOM     16  H   VAL A   1     -13.488  51.245  20.257  0.00  0.00    +0.142 HD
ENDBRANCH  11  15
ENDBRANCH   7  11
ENDBRANCH   6   9
BRANCH   6  17
ATOM     17  CB  ASN A   2     -13.043  53.068  14.295  0.00  0.00    +0.114 C 
BRANCH  17  18
ATOM     18  CG  ASN A   2     -11.814  53.890  14.592  0.00  0.00    +0.222 C 
ATOM     19  OD1 ASN A   2     -11.467  54.107  15.751  0.00  0.00    -0.275 OA
ATOM     20  ND2 ASN A   2     -11.157  54.360  13.551  0.00  0.00    -0.329 N 
ATOM     21 HD21 ASN A   2     -10.306  54.941  13.692  0.00  0.00    +0.145 HD
ATOM     22 HD22 ASN A   2     -11.489  54.150  12.588  0.00  0.00    +0.145 HD
ENDBRANCH  17  18
ENDBRANCH   6  17
ENDBRANCH   2   6
ENDBRANCH   1   3
BRANCH   1  23
ATOM     23  C   TYR A   3      -9.516  49.483  17.254  0.00  0.00    +0.241 C 
ATOM     24  O   TYR A   3      -8.857  50.241  17.975  0.00  0.00    -0.273 OA
ATOM     25  N   ASN A   4      -9.871  48.259  17.618  0.00  0.00    -0.297 N 
ATOM     26  H   ASN A   4     -10.233  47.601  16.898  0.00  0.00    +0.150 HD
BRANCH  25  27
ATOM     27  CA  ASN A   4      -9.767  47.810  19.005  0.00  0.00    +0.158 C 
BRANCH  27  28
ATOM     28  C   ASN A   4      -9.256  46.364  19.095  0.00  0.00    +0.244 C 
ATOM     29  O   ASN A   4      -9.870  45.534  19.771  0.00  0.00    -0.273 OA
ATOM     30  N   PRO A   5      -8.118  46.059  18.434  0.00  0.00    -0.273 N 
ATOM     31  CA  PRO A   5      -7.639  44.677  18.336  0.00  0.00    +0.140 C 
ATOM     32  CB  PRO A   5      -6.312  44.819  17.584  0.00  0.00    +0.030 C 
ATOM     33  CG  PRO A   5      -5.923  46.220  17.737  0.00  0.00    +0.024 C 
ATOM     34  CD  PRO A   5      -7.188  46.996  17.778  0.00  0.00    +0.094 C 
BRANCH  31  35
ATOM     35  C   PRO A   5      -7.393  44.002  19.679  0.00  0.00    +0.227 C 
ATOM     36  O   PRO A   5      -7.529  42.786  19.780  0.00  0.00    -0.286 OA
ENDBRANCH  31  35
ENDBRANCH  27  28
BRANCH  27  37
ATOM     37  CB  ASN A   4     -11.141  47.897  19.700  0.00  0.00    +0.114 C 
BRANCH  37  38
ATOM     38  CG  ASN A   4     -12.056  48.956  19.099  0.00  0.00    +0.222 C 
ATOM     39  OD1 ASN A   4     -11.799  50.151  19.215  0.00  0.00    -0.275 OA
ATOM     40  ND2 ASN A   4     -13.144  48.513  18.473  0.00  0.00    -0.329 N 
ATOM     41 HD21 ASN A   4     -13.321  47.491  18.399  0.00  0.00    +0.145 HD
ATOM     42 HD22 ASN A   4     -13.817  49.189  18.058  0.00  0.00    +0.145 HD
ENDBRANCH  37  38
ENDBRANCH  27  37
ENDBRANCH  25  27
ENDBRANCH   1  23
BRANCH   1  43
ATOM     43  CB  TYR A   3      -8.903  50.629  15.090  0.00  0.00    +0.055 C 
BRANCH  43  44
ATOM     44  CG  TYR A   3      -7.804  49.683  14.686  0.00  0.00    -0.020 A 
ATOM     45  CD2 TYR A   3      -6.570  49.697  15.333  0.00  0.00    -0.001 A 
ATOM     46  CE2 TYR A   3      -5.559  48.808  14.980  0.00  0.00    +0.036 A 
ATOM     47  CZ  TYR A   3      -5.795  47.886  13.968  0.00  0.00    +0.134 A 
ATOM     48  CE1 TYR A   3      -7.018  47.858  13.317  0.00  0.00    +0.036 A 
ATOM     49  CD1 TYR A   3      -8.013  48.743  13.682  0.00  0.00    -0.001 A 
BRANCH  47  50
ATOM     50  OH  TYR A   3      -4.807  47.004  13.595  0.00  0.00    -0.506 OA
ATOM     51  HH  TYR A   3      -4.004  47.154  14.154  0.00  0.00    +0.292 HD
ENDBRANCH  47  50
ENDBRANCH  43  44
ENDBRANCH   1  43
TORSDOF 17
REMARK  Name = ../refined-set-2016/3g2z/3g2z_pocket.pdb
REMARK  140 active torsions:
REMARK  status: ('A' for Active; 'I' for Inactive)
REMARK    1  A    between atoms: _1  and  _3
REMARK    2  A    between atoms: _3  and  _4
REMARK    3  A    between atoms: _3  and  _6
REMARK    4  A    between atoms: _6  and  _7
REMARK    5  A    between atoms: _7  and  _8
REMARK    6  A    between atoms: _10  and  _12
REMARK    7  A    between atoms: _12  and  _13
REMARK    8  A    between atoms: _12  and  _15
REMARK    9  A    between atoms: _17  and  _19
REMARK   10  A    between atoms: _19  and  _20
REMARK   11  A    between atoms: _19  and  _22
REMARK   12  A    between atoms: _22  and  _23
REMARK   13  A    between atoms: _25  and  _27
REMARK   14  A    between atoms: _27  and  _28
REMARK   15  A    between atoms: _27  and  _30
REMARK   16  A    between atoms: _30  and  _31
REMARK   17  A    between atoms: _34  and  _36
REMARK   18  A    between atoms: _36  and  _37
REMARK   19  A    between atoms: _36  and  _39
REMARK   20  A    between atoms: _39  and  _40
REMARK   21  A    between atoms: _40  and  _41
REMARK   22  A    between atoms: _41  and  _42
REMARK   23  A    between atoms: _42  and  _43
REMARK   24  A    between atoms: _47  and  _49
REMARK   25  A    between atoms: _49  and  _50
REMARK   26  A    between atoms: _49  and  _52
REMARK   27  A    between atoms: _55  and  _57
REMARK   28  A    between atoms: _57  and  _58
REMARK   29  A    between atoms: _57  and  _60
REMARK   30  A    between atoms: _60  and  _61
REMARK   31  A    between atoms: _66  and  _68
REMARK   32  A    between atoms: _68  and  _69
REMARK   33  A    between atoms: _68  and  _71
REMARK   34  A    between atoms: _71  and  _72
REMARK   35  A    between atoms: _77  and  _78
REMARK   36  A    between atoms: _80  and  _82
REMARK   37  A    between atoms: _82  and  _83
REMARK   38  A    between atoms: _82  and  _85
REMARK   39  A    between atoms: _85  and  _86
REMARK   40  A    between atoms: _92  and  _93
REMARK   41  A    between atoms: _98  and  _100
REMARK   42  A    between atoms: _100  and  _101
REMARK   43  A    between atoms: _104  and  _106
REMARK   44  A    between atoms: _106  and  _107
REMARK   45  A    between atoms: _106  and  _109
REMARK   46  A    between atoms: _109  and  _110
REMARK   47  A    between atoms: _113  and  _115
REMARK   48  A    between atoms: _115  and  _116
REMARK   49  A    between atoms: _115  and  _118
REMARK   50  A    between atoms: _118  and  _119
REMARK   51  A    between atoms: _124  and  _125
REMARK   52  A    between atoms: _127  and  _129
REMARK   53  A    between atoms: _129  and  _130
REMARK   54  A    between atoms: _129  and  _132
REMARK   55  A    between atoms: _132  and  _133
REMARK   56  A    between atoms: _135  and  _137
REMARK   57  A    between atoms: _137  and  _138
REMARK   58  A    between atoms: _137  and  _140
REMARK   59  A    between atoms: _140  and  _141
REMARK   60  A    between atoms: _144  and  _146
REMARK   61  A    between atoms: _146  and  _147
REMARK   62  A    between atoms: _146  and  _149
REMARK   63  A    between atoms: _149  and  _150
REMARK   64  A    between atoms: _155  and  _157
REMARK   65  A    between atoms: _157  and  _158
REMARK   66  A    between atoms: _157  and  _160
REMARK   67  A    between atoms: _160  and  _161
REMARK   68  A    between atoms: _161  and  _162
REMARK   69  A    between atoms: _166  and  _167
REMARK   70  A    between atoms: _172  and  _174
REMARK   71  A    between atoms: _174  and  _175
REMARK   72  A    between atoms: _174  and  _177
REMARK   73  A    between atoms: _177  and  _178
REMARK   74  A    between atoms: _183  and  _185
REMARK   75  A    between atoms: _185  and  _186
REMARK   76  A    between atoms: _185  and  _188
REMARK   77  A    between atoms: _188  and  _189
REMARK   78  A    between atoms: _194  and  _196
REMARK   79  A    between atoms: _196  and  _197
REMARK   80  A    between atoms: _196  and  _199
REMARK   81  A    between atoms: _199  and  _200
REMARK   82  A    between atoms: _203  and  _205
REMARK   83  A    between atoms: _205  and  _206
REMARK   84  A    between atoms: _208  and  _210
REMARK   85  A    between atoms: _210  and  _211
REMARK   86  A    between atoms: _210  and  _213
REMARK   87  A    between atoms: _213  and  _214
REMARK   88  A    between atoms: _216  and  _218
REMARK   89  A    between atoms: _218  and  _219
REMARK   90  A    between atoms: _218  and  _221
REMARK   91  A    between atoms: _221  and  _222
REMARK   92  A    between atoms: _225  and  _227
REMARK   93  A    between atoms: _227  and  _228
REMARK   94  A    between atoms: _227  and  _230
REMARK   95  A    between atoms: _230  and  _231
REMARK   96  A    between atoms: _231  and  _232
REMARK   97  A    between atoms: _232  and  _233
REMARK   98  A    between atoms: _233  and  _234
REMARK   99  A    between atoms: _238  and  _240
REMARK  100  A    between atoms: _240  and  _241
REMARK  101  A    between atoms: _240  and  _243
REMARK  102  A    between atoms: _243  and  _244
REMARK  103  A    between atoms: _247  and  _249
REMARK  104  A    between atoms: _249  and  _250
REMARK  105  A    between atoms: _252  and  _254
REMARK  106  A    between atoms: _254  and  _255
REMARK  107  A    between atoms: _254  and  _257
REMARK  108  A    between atoms: _257  and  _258
REMARK  109  A    between atoms: _260  and  _262
REMARK  110  A    between atoms: _262  and  _263
REMARK  111  A    between atoms: _265  and  _267
REMARK  112  A    between atoms: _267  and  _268
REMARK  113  A    between atoms: _267  and  _270
REMARK  114  A    between atoms: _270  and  _271
REMARK  115  A    between atoms: _274  and  _276
REMARK  116  A    between atoms: _276  and  _277
REMARK  117  A    between atoms: _276  and  _279
REMARK  118  A    between atoms: _279  and  _280
REMARK  119  A    between atoms: _283  and  _285
REMARK  120  A    between atoms: _285  and  _286
REMARK  121  A    between atoms: _285  and  _288
REMARK  122  A    between atoms: _288  and  _289
REMARK  123  A    between atoms: _294  and  _296
REMARK  124  A    between atoms: _296  and  _297
REMARK  125  A    between atoms: _296  and  _299
REMARK  126  A    between atoms: _299  and  _300
REMARK  127  A    between atoms: _303  and  _305
REMARK  128  A    between atoms: _305  and  _306
REMARK  129  A    between atoms: _305  and  _308
REMARK  130  A    between atoms: _308  and  _309
REMARK  131  A    between atoms: _311  and  _313
REMARK  132  A    between atoms: _313  and  _314
REMARK  133  A    between atoms: _313  and  _316
REMARK  134  A    between atoms: _316  and  _317
REMARK  135  A    between atoms: _317  and  _318
REMARK  136  A    between atoms: _318  and  _319
REMARK  137  A    between atoms: _328  and  _330
REMARK  138  A    between atoms: _330  and  _331
REMARK  139  A    between atoms: _330  and  _333
REMARK  140  A    between atoms: _333  and  _334
REMARK                            x       y       z     vdW  Elec       q    Type
REMARK                         _______ _______ _______ _____ _____    ______ ____
ROOT
ATOM      1  C   ALA A   1      -0.835  51.807  21.518  0.00  0.00    +0.238 C 
ATOM      2  N   LEU A   2       0.304  51.595  22.159  0.00  0.00    -0.298 N 
ATOM      3  H   LEU A   2       0.296  51.265  23.145  0.00  0.00    +0.150 HD
ATOM      4  O   ALA A   1      -0.861  52.052  20.312  0.00  0.00    -0.274 OA
ENDROOT
BRANCH   1   5
ATOM      5  CA  ALA A   1      -2.124  51.688  22.341  0.00  0.00    +0.145 C 
ATOM      6  CB  ALA A   1      -2.287  52.877  23.288  0.00  0.00    +0.028 C 
BRANCH   5   7
ATOM      7  N   ALA A   1      -2.149  50.446  23.100  0.00  0.00    -0.238 NA
ATOM      8  H   ALA A   1      -2.200  50.484  24.138  0.00  0.00    +0.142 HD
ENDBRANCH   5   7
ENDBRANCH   1   5
BRANCH   2   9
ATOM      9  CA  LEU A   2       1.567  51.826  21.475  0.00  0.00    +0.137 C 
BRANCH   9  10
ATOM     10  C   LEU A   2       1.915  50.742  20.476  0.00  0.00    +0.227 C 
ATOM     11  O   LEU A   2       2.349  51.042  19.373  0.00  0.00    -0.286 OA
ENDBRANCH   9  10
BRANCH   9  12
ATOM     12  CB  LEU A   2       2.699  51.980  22.486  0.00  0.00    +0.028 C 
BRANCH  12  13
ATOM     13  CG  LEU A   2       2.640  53.227  23.361  0.00  0.00    +0.002 C 
ATOM     14  CD2 LEU A   2       3.753  53.163  24.390  0.00  0.00    +0.000 C 
ATOM     15  CD1 LEU A   2       2.716  54.490  22.525  0.00  0.00    +0.000 C 
ENDBRANCH  12  13
ENDBRANCH   9  12
ENDBRANCH   2   9
TORSDOF 6
REMARK  Name = ../refined-set-2016/3g2z/3g2z_pocket.pdb
REMARK  140 active torsions:
REMARK  status: ('A' for Active; 'I' for Inactive)
REMARK    1  A    between atoms: _1  and  _3
REMARK    2  A    between atoms: _3  and  _4
REMARK    3  A    between atoms: _3  and  _6
REMARK    4  A    between atoms: _6  and  _7
REMARK    5  A    between atoms: _7  and  _8
REMARK    6  A    between atoms: _10  and  _12
REMARK    7  A    between atoms: _12  and  _13
REMARK    8  A    between atoms: _12  and  _15
REMARK    9  A    between atoms: _17  and  _19
REMARK   10  A    between atoms: _19  and  _20
REMARK   11  A    between atoms: _19  and  _22
REMARK   12  A    between atoms: _22  and  _23
REMARK   13  A    between atoms: _25  and  _27
REMARK   14  A    between atoms: _27  and  _28
REMARK   15  A    between atoms: _27  and  _30
REMARK   16  A    between atoms: _30  and  _31
REMARK   17  A    between atoms: _34  and  _36
REMARK   18  A    between atoms: _36  and  _37
REMARK   19  A    between atoms: _36  and  _39
REMARK   20  A    between atoms: _39  and  _40
REMARK   21  A    between atoms: _40  and  _41
REMARK   22  A    between atoms: _41  and  _42
REMARK   23  A    between atoms: _42  and  _43
REMARK   24  A    between atoms: _47  and  _49
REMARK   25  A    between atoms: _49  and  _50
REMARK   26  A    between atoms: _49  and  _52
REMARK   27  A    between atoms: _55  and  _57
REMARK   28  A    between atoms: _57  and  _58
REMARK   29  A    between atoms: _57  and  _60
REMARK   30  A    between atoms: _60  and  _61
REMARK   31  A    between atoms: _66  and  _68
REMARK   32  A    between atoms: _68  and  _69
REMARK   33  A    between atoms: _68  and  _71
REMARK   34  A    between atoms: _71  and  _72
REMARK   35  A    between atoms: _77  and  _78
REMARK   36  A    between atoms: _80  and  _82
REMARK   37  A    between atoms: _82  and  _83
REMARK   38  A    between atoms: _82  and  _85
REMARK   39  A    between atoms: _85  and  _86
REMARK   40  A    between atoms: _92  and  _93
REMARK   41  A    between atoms: _98  and  _100
REMARK   42  A    between atoms: _100  and  _101
REMARK   43  A    between atoms: _104  and  _106
REMARK   44  A    between atoms: _106  and  _107
REMARK   45  A    between atoms: _106  and  _109
REMARK   46  A    between atoms: _109  and  _110
REMARK   47  A    between atoms: _113  and  _115
REMARK   48  A    between atoms: _115  and  _116
REMARK   49  A    between atoms: _115  and  _118
REMARK   50  A    between atoms: _118  and  _119
REMARK   51  A    between atoms: _124  and  _125
REMARK   52  A    between atoms: _127  and  _129
REMARK   53  A    between atoms: _129  and  _130
REMARK   54  A    between atoms: _129  and  _132
REMARK   55  A    between atoms: _132  and  _133
REMARK   56  A    between atoms: _135  and  _137
REMARK   57  A    between atoms: _137  and  _138
REMARK   58  A    between atoms: _137  and  _140
REMARK   59  A    between atoms: _140  and  _141
REMARK   60  A    between atoms: _144  and  _146
REMARK   61  A    between atoms: _146  and  _147
REMARK   62  A    between atoms: _146  and  _149
REMARK   63  A    between atoms: _149  and  _150
REMARK   64  A    between atoms: _155  and  _157
REMARK   65  A    between atoms: _157  and  _158
REMARK   66  A    between atoms: _157  and  _160
REMARK   67  A    between atoms: _160  and  _161
REMARK   68  A    between atoms: _161  and  _162
REMARK   69  A    between atoms: _166  and  _167
REMARK   70  A    between atoms: _172  and  _174
REMARK   71  A    between atoms: _174  and  _175
REMARK   72  A    between atoms: _174  and  _177
REMARK   73  A    between atoms: _177  and  _178
REMARK   74  A    between atoms: _183  and  _185
REMARK   75  A    between atoms: _185  and  _186
REMARK   76  A    between atoms: _185  and  _188
REMARK   77  A    between atoms: _188  and  _189
REMARK   78  A    between atoms: _194  and  _196
REMARK   79  A    between atoms: _196  and  _197
REMARK   80  A    between atoms: _196  and  _199
REMARK   81  A    between atoms: _199  and  _200
REMARK   82  A    between atoms: _203  and  _205
REMARK   83  A    between atoms: _205  and  _206
REMARK   84  A    between atoms: _208  and  _210
REMARK   85  A    between atoms: _210  and  _211
REMARK   86  A    between atoms: _210  and  _213
REMARK   87  A    between atoms: _213  and  _214
REMARK   88  A    between atoms: _216  and  _218
REMARK   89  A    between atoms: _218  and  _219
REMARK   90  A    between atoms: _218  and  _221
REMARK   91  A    between atoms: _221  and  _222
REMARK   92  A    between atoms: _225  and  _227
REMARK   93  A    between atoms: _227  and  _228
REMARK   94  A    between atoms: _227  and  _230
REMARK   95  A    between atoms: _230  and  _231
REMARK   96  A    between atoms: _231  and  _232
REMARK   97  A    between atoms: _232  and  _233
REMARK   98  A    between atoms: _233  and  _234
REMARK   99  A    between atoms: _238  and  _240
REMARK  100  A    between atoms: _240  and  _241
REMARK  101  A    between atoms: _240  and  _243
REMARK  102  A    between atoms: _243  and  _244
REMARK  103  A    between atoms: _247  and  _249
REMARK  104  A    between atoms: _249  and  _250
REMARK  105  A    between atoms: _252  and  _254
REMARK  106  A    between atoms: _254  and  _255
REMARK  107  A    between atoms: _254  and  _257
REMARK  108  A    between atoms: _257  and  _258
REMARK  109  A    between atoms: _260  and  _262
REMARK  110  A    between atoms: _262  and  _263
REMARK  111  A    between atoms: _265  and  _267
REMARK  112  A    between atoms: _267  and  _268
REMARK  113  A    between atoms: _267  and  _270
REMARK  114  A    between atoms: _270  and  _271
REMARK  115  A    between atoms: _274  and  _276
REMARK  116  A    between atoms: _276  and  _277
REMARK  117  A    between atoms: _276  and  _279
REMARK  118  A    between atoms: _279  and  _280
REMARK  119  A    between atoms: _283  and  _285
REMARK  120  A    between atoms: _285  and  _286
REMARK  121  A    between atoms: _285  and  _288
REMARK  122  A    between atoms: _288  and  _289
REMARK  123  A    between atoms: _294  and  _296
REMARK  124  A    between atoms: _296  and  _297
REMARK  125  A    between atoms: _296  and  _299
REMARK  126  A    between atoms: _299  and  _300
REMARK  127  A    between atoms: _303  and  _305
REMARK  128  A    between atoms: _305  and  _306
REMARK  129  A    between atoms: _305  and  _308
REMARK  130  A    between atoms: _308  and  _309
REMARK  131  A    between atoms: _311  and  _313
REMARK  132  A    between atoms: _313  and  _314
REMARK  133  A    between atoms: _313  and  _316
REMARK  134  A    between atoms: _316  and  _317
REMARK  135  A    between atoms: _317  and  _318
REMARK  136  A    between atoms: _318  and  _319
REMARK  137  A    between atoms: _328  and  _330
REMARK  138  A    between atoms: _330  and  _331
REMARK  139  A    between atoms: _330  and  _333
REMARK  140  A    between atoms: _333  and  _334
REMARK                            x       y       z     vdW  Elec       q    Type
REMARK                         _______ _______ _______ _____ _____    ______ ____
ROOT
ATOM      1  C   SER A   2      -3.943  51.074  18.200  0.00  0.00    +0.243 C 
ATOM      2  N   ASP A   3      -4.224  50.451  19.351  0.00  0.00    -0.296 N 
ATOM      3  H   ASP A   3      -3.439  50.088  19.929  0.00  0.00    +0.150 HD
ATOM      4  O   SER A   2      -4.809  51.561  17.468  0.00  0.00    -0.273 OA
ENDROOT
BRANCH   2   5
ATOM      5  CA  ASP A   3      -5.603  50.261  19.827  0.00  0.00    +0.160 C 
BRANCH   5   6
ATOM      6  C   ASP A   3      -6.235  51.591  20.243  0.00  0.00    +0.241 C 
ATOM      7  O   ASP A   3      -5.721  52.286  21.137  0.00  0.00    -0.273 OA
ATOM      8  N   ASN A   4      -7.337  51.949  19.577  0.00  0.00    -0.298 N 
ATOM      9  H   ASN A   4      -7.747  51.284  18.890  0.00  0.00    +0.150 HD
BRANCH   8  10
ATOM     10  CA  ASN A   4      -7.989  53.249  19.782  0.00  0.00    +0.146 C 
BRANCH  10  11
ATOM     11  C   ASN A   4      -8.811  53.329  21.063  0.00  0.00    +0.227 C 
ATOM     12  O   ASN A   4      -8.896  54.391  21.681  0.00  0.00    -0.286 OA
ENDBRANCH  10  11
BRANCH  10  13
ATOM     13  CB  ASN A   4      -8.844  53.638  18.572  0.00  0.00    +0.112 C 
BRANCH  13  14
ATOM     14  CG  ASN A   4      -8.019  54.157  17.419  0.00  0.00    +0.222 C 
ATOM     15  OD1 ASN A   4      -6.830  54.458  17.567  0.00  0.00    -0.275 OA
ATOM     16  ND2 ASN A   4      -8.658  54.289  16.251  0.00  0.00    -0.329 N 
ATOM     17 HD21 ASN A   4      -9.660  54.022  16.174  0.00  0.00    +0.145 HD
ATOM     18 HD22 ASN A   4      -8.152  54.658  15.420  0.00  0.00    +0.145 HD
ENDBRANCH  13  14
ENDBRANCH  10  13
ENDBRANCH   8  10
ENDBRANCH   5   6
BRANCH   5  19
ATOM     19  CB  ASP A   3      -5.643  49.249  20.972  0.00  0.00    +0.143 C 
BRANCH  19  20
ATOM     20  CG  ASP A   3      -7.062  48.817  21.330  0.00  0.00    +0.367 C 
ATOM     21  OD2 ASP A   3      -7.902  49.688  21.653  0.00  0.00    -0.246 OA
ATOM     22  OD1 ASP A   3      -7.340  47.598  21.293  0.00  0.00    -0.246 OA
ENDBRANCH  19  20
ENDBRANCH   5  19
ENDBRANCH   2   5
BRANCH   1  23
ATOM     23  CA  SER A   2      -2.450  51.196  17.830  0.00  0.00    +0.178 C 
BRANCH  23  25
ATOM     24  C   TYR A   1      -1.925  48.819  17.777  0.00  0.00    +0.239 C 
ATOM     25  N   SER A   2      -1.684  50.033  18.277  0.00  0.00    -0.295 N 
ATOM     26  H   SER A   2      -0.941  50.154  18.995  0.00  0.00    +0.150 HD
ATOM     27  O   TYR A   1      -2.785  48.606  16.910  0.00  0.00    -0.274 OA
BRANCH  24  28
ATOM     28  CA  TYR A   1      -1.094  47.665  18.325  0.00  0.00    +0.149 C 
BRANCH  28  29
ATOM     29  N   TYR A   1      -0.049  48.098  19.245  0.00  0.00    -0.238 NA
ATOM     30  H   TYR A   1      -0.315  48.617  20.106  0.00  0.00    +0.142 HD
ENDBRANCH  28  29
BRANCH  28  31
ATOM     31  CB  TYR A   1      -1.997  46.631  19.011  0.00  0.00    +0.053 C 
BRANCH  31  32
ATOM     32  CG  TYR A   1      -1.243  45.363  19.327  0.00  0.00    -0.020 A 
ATOM     33  CD2 TYR A   1      -0.555  45.210  20.535  0.00  0.00    -0.001 A 
ATOM     34  CE2 TYR A   1       0.177  44.047  20.807  0.00  0.00    +0.036 A 
ATOM     35  CZ  TYR A   1       0.197  43.028  19.866  0.00  0.00    +0.134 A 
ATOM     36  CE1 TYR A   1      -0.473  43.168  18.662  0.00  0.00    +0.036 A 
ATOM     37  CD1 TYR A   1      -1.186  44.326  18.399  0.00  0.00    -0.001 A 
BRANCH  35  38
ATOM     38  OH  TYR A   1       0.897  41.869  20.120  0.00  0.00    -0.506 OA
ATOM     39  HH  TYR A   1       1.315  41.927  21.015  0.00  0.00    +0.292 HD
ENDBRANCH  35  38
ENDBRANCH  31  32
ENDBRANCH  28  31
ENDBRANCH  24  28
ENDBRANCH  23  25
BRANCH  23  40
ATOM     40  CB  SER A   2      -2.241  51.454  16.328  0.00  0.00    +0.166 C 
BRANCH  40  41
ATOM     41  OG  SER A   2      -2.104  52.850  16.095  0.00  0.00    -0.380 OA
ATOM     42  H   SER A   2      -1.970  53.010  15.127  0.00  0.00    +0.211 HD
ENDBRANCH  40  41
ENDBRANCH  23  40
ENDBRANCH   1  23
TORSDOF 17
REMARK  Name = ../refined-set-2016/3g2z/3g2z_pocket.pdb
REMARK  140 active torsions:
REMARK  status: ('A' for Active; 'I' for Inactive)
REMARK    1  A    between atoms: _1  and  _3
REMARK    2  A    between atoms: _3  and  _4
REMARK    3  A    between atoms: _3  and  _6
REMARK    4  A    between atoms: _6  and  _7
REMARK    5  A    between atoms: _7  and  _8
REMARK    6  A    between atoms: _10  and  _12
REMARK    7  A    between atoms: _12  and  _13
REMARK    8  A    between atoms: _12  and  _15
REMARK    9  A    between atoms: _17  and  _19
REMARK   10  A    between atoms: _19  and  _20
REMARK   11  A    between atoms: _19  and  _22
REMARK   12  A    between atoms: _22  and  _23
REMARK   13  A    between atoms: _25  and  _27
REMARK   14  A    between atoms: _27  and  _28
REMARK   15  A    between atoms: _27  and  _30
REMARK   16  A    between atoms: _30  and  _31
REMARK   17  A    between atoms: _34  and  _36
REMARK   18  A    between atoms: _36  and  _37
REMARK   19  A    between atoms: _36  and  _39
REMARK   20  A    between atoms: _39  and  _40
REMARK   21  A    between atoms: _40  and  _41
REMARK   22  A    between atoms: _41  and  _42
REMARK   23  A    between atoms: _42  and  _43
REMARK   24  A    between atoms: _47  and  _49
REMARK   25  A    between atoms: _49  and  _50
REMARK   26  A    between atoms: _49  and  _52
REMARK   27  A    between atoms: _55  and  _57
REMARK   28  A    between atoms: _57  and  _58
REMARK   29  A    between atoms: _57  and  _60
REMARK   30  A    between atoms: _60  and  _61
REMARK   31  A    between atoms: _66  and  _68
REMARK   32  A    between atoms: _68  and  _69
REMARK   33  A    between atoms: _68  and  _71
REMARK   34  A    between atoms: _71  and  _72
REMARK   35  A    between atoms: _77  and  _78
REMARK   36  A    between atoms: _80  and  _82
REMARK   37  A    between atoms: _82  and  _83
REMARK   38  A    between atoms: _82  and  _85
REMARK   39  A    between atoms: _85  and  _86
REMARK   40  A    between atoms: _92  and  _93
REMARK   41  A    between atoms: _98  and  _100
REMARK   42  A    between atoms: _100  and  _101
REMARK   43  A    between atoms: _104  and  _106
REMARK   44  A    between atoms: _106  and  _107
REMARK   45  A    between atoms: _106  and  _109
REMARK   46  A    between atoms: _109  and  _110
REMARK   47  A    between atoms: _113  and  _115
REMARK   48  A    between atoms: _115  and  _116
REMARK   49  A    between atoms: _115  and  _118
REMARK   50  A    between atoms: _118  and  _119
REMARK   51  A    between atoms: _124  and  _125
REMARK   52  A    between atoms: _127  and  _129
REMARK   53  A    between atoms: _129  and  _130
REMARK   54  A    between atoms: _129  and  _132
REMARK   55  A    between atoms: _132  and  _133
REMARK   56  A    between atoms: _135  and  _137
REMARK   57  A    between atoms: _137  and  _138
REMARK   58  A    between atoms: _137  and  _140
REMARK   59  A    between atoms: _140  and  _141
REMARK   60  A    between atoms: _144  and  _146
REMARK   61  A    between atoms: _146  and  _147
REMARK   62  A    between atoms: _146  and  _149
REMARK   63  A    between atoms: _149  and  _150
REMARK   64  A    between atoms: _155  and  _157
REMARK   65  A    between atoms: _157  and  _158
REMARK   66  A    between atoms: _157  and  _160
REMARK   67  A    between atoms: _160  and  _161
REMARK   68  A    between atoms: _161  and  _162
REMARK   69  A    between atoms: _166  and  _167
REMARK   70  A    between atoms: _172  and  _174
REMARK   71  A    between atoms: _174  and  _175
REMARK   72  A    between atoms: _174  and  _177
REMARK   73  A    between atoms: _177  and  _178
REMARK   74  A    between atoms: _183  and  _185
REMARK   75  A    between atoms: _185  and  _186
REMARK   76  A    between atoms: _185  and  _188
REMARK   77  A    between atoms: _188  and  _189
REMARK   78  A    between atoms: _194  and  _196
REMARK   79  A    between atoms: _196  and  _197
REMARK   80  A    between atoms: _196  and  _199
REMARK   81  A    between atoms: _199  and  _200
REMARK   82  A    between atoms: _203  and  _205
REMARK   83  A    between atoms: _205  and  _206
REMARK   84  A    between atoms: _208  and  _210
REMARK   85  A    between atoms: _210  and  _211
REMARK   86  A    between atoms: _210  and  _213
REMARK   87  A    between atoms: _213  and  _214
REMARK   88  A    between atoms: _216  and  _218
REMARK   89  A    between atoms: _218  and  _219
REMARK   90  A    between atoms: _218  and  _221
REMARK   91  A    between atoms: _221  and  _222
REMARK   92  A    between atoms: _225  and  _227
REMARK   93  A    between atoms: _227  and  _228
REMARK   94  A    between atoms: _227  and  _230
REMARK   95  A    between atoms: _230  and  _231
REMARK   96  A    between atoms: _231  and  _232
REMARK   97  A    between atoms: _232  and  _233
REMARK   98  A    between atoms: _233  and  _234
REMARK   99  A    between atoms: _238  and  _240
REMARK  100  A    between atoms: _240  and  _241
REMARK  101  A    between atoms: _240  and  _243
REMARK  102  A    between atoms: _243  and  _244
REMARK  103  A    between atoms: _247  and  _249
REMARK  104  A    between atoms: _249  and  _250
REMARK  105  A    between atoms: _252  and  _254
REMARK  106  A    between atoms: _254  and  _255
REMARK  107  A    between atoms: _254  and  _257
REMARK  108  A    between atoms: _257  and  _258
REMARK  109  A    between atoms: _260  and  _262
REMARK  110  A    between atoms: _262  and  _263
REMARK  111  A    between atoms: _265  and  _267
REMARK  112  A    between atoms: _267  and  _268
REMARK  113  A    between atoms: _267  and  _270
REMARK  114  A    between atoms: _270  and  _271
REMARK  115  A    between atoms: _274  and  _276
REMARK  116  A    between atoms: _276  and  _277
REMARK  117  A    between atoms: _276  and  _279
REMARK  118  A    between atoms: _279  and  _280
REMARK  119  A    between atoms: _283  and  _285
REMARK  120  A    between atoms: _285  and  _286
REMARK  121  A    between atoms: _285  and  _288
REMARK  122  A    between atoms: _288  and  _289
REMARK  123  A    between atoms: _294  and  _296
REMARK  124  A    between atoms: _296  and  _297
REMARK  125  A    between atoms: _296  and  _299
REMARK  126  A    between atoms: _299  and  _300
REMARK  127  A    between atoms: _303  and  _305
REMARK  128  A    between atoms: _305  and  _306
REMARK  129  A    between atoms: _305  and  _308
REMARK  130  A    between atoms: _308  and  _309
REMARK  131  A    between atoms: _311  and  _313
REMARK  132  A    between atoms: _313  and  _314
REMARK  133  A    between atoms: _313  and  _316
REMARK  134  A    between atoms: _316  and  _317
REMARK  135  A    between atoms: _317  and  _318
REMARK  136  A    between atoms: _318  and  _319
REMARK  137  A    between atoms: _328  and  _330
REMARK  138  A    between atoms: _330  and  _331
REMARK  139  A    between atoms: _330  and  _333
REMARK  140  A    between atoms: _333  and  _334
REMARK                            x       y       z     vdW  Elec       q    Type
REMARK                         _______ _______ _______ _____ _____    ______ ____
ROOT
ATOM      1  C   GLU A   1     -12.008  58.327  18.959  0.00  0.00    +0.241 C 
ATOM      2  O   GLU A   1     -12.717  58.122  19.940  0.00  0.00    -0.273 OA
ATOM      3  N   PRO A   2     -12.469  58.250  17.694  0.00  0.00    -0.273 N 
ATOM      4  CD  PRO A   2     -13.877  57.890  17.433  0.00  0.00    +0.094 C 
ATOM      5  CG  PRO A   2     -13.911  57.625  15.938  0.00  0.00    +0.024 C 
ATOM      6  CB  PRO A   2     -12.488  57.419  15.522  0.00  0.00    +0.030 C 
ATOM      7  CA  PRO A   2     -11.711  58.353  16.449  0.00  0.00    +0.140 C 
ENDROOT
BRANCH   7   8
ATOM      8  C   PRO A   2     -11.645  59.729  15.794  0.00  0.00    +0.227 C 
ATOM      9  O   PRO A   2     -10.939  59.879  14.786  0.00  0.00    -0.286 OA
ENDBRANCH   7   8
BRANCH   1  10
ATOM     10  CA  GLU A   1     -10.523  58.603  19.161  0.00  0.00    +0.146 C 
BRANCH  10  11
ATOM     11  N   GLU A   1     -10.323  59.498  20.299  0.00  0.00    -0.238 NA
ATOM     12  H   GLU A   1      -9.989  59.104  21.202  0.00  0.00    +0.142 HD
ENDBRANCH  10  11
BRANCH  10  13
ATOM     13  CB  GLU A   1      -9.811  57.275  19.418  0.00  0.00    +0.038 C 
BRANCH  13  14
ATOM     14  CG  GLU A   1      -8.299  57.388  19.473  0.00  0.00    +0.116 C 
BRANCH  14  15
ATOM     15  CD  GLU A   1      -7.668  57.534  18.107  0.00  0.00    +0.365 C 
ATOM     16  OE2 GLU A   1      -6.424  57.641  18.038  0.00  0.00    -0.246 OA
ATOM     17  OE1 GLU A   1      -8.396  57.524  17.096  0.00  0.00    -0.246 OA
ENDBRANCH  14  15
ENDBRANCH  13  14
ENDBRANCH  10  13
ENDBRANCH   1  10
TORSDOF 6
REMARK  Name = ../refined-set-2016/3g2z/3g2z_pocket.pdb
REMARK  140 active torsions:
REMARK  status: ('A' for Active; 'I' for Inactive)
REMARK    1  A    between atoms: _1  and  _3
REMARK    2  A    between atoms: _3  and  _4
REMARK    3  A    between atoms: _3  and  _6
REMARK    4  A    between atoms: _6  and  _7
REMARK    5  A    between atoms: _7  and  _8
REMARK    6  A    between atoms: _10  and  _12
REMARK    7  A    between atoms: _12  and  _13
REMARK    8  A    between atoms: _12  and  _15
REMARK    9  A    between atoms: _17  and  _19
REMARK   10  A    between atoms: _19  and  _20
REMARK   11  A    between atoms: _19  and  _22
REMARK   12  A    between atoms: _22  and  _23
REMARK   13  A    between atoms: _25  and  _27
REMARK   14  A    between atoms: _27  and  _28
REMARK   15  A    between atoms: _27  and  _30
REMARK   16  A    between atoms: _30  and  _31
REMARK   17  A    between atoms: _34  and  _36
REMARK   18  A    between atoms: _36  and  _37
REMARK   19  A    between atoms: _36  and  _39
REMARK   20  A    between atoms: _39  and  _40
REMARK   21  A    between atoms: _40  and  _41
REMARK   22  A    between atoms: _41  and  _42
REMARK   23  A    between atoms: _42  and  _43
REMARK   24  A    between atoms: _47  and  _49
REMARK   25  A    between atoms: _49  and  _50
REMARK   26  A    between atoms: _49  and  _52
REMARK   27  A    between atoms: _55  and  _57
REMARK   28  A    between atoms: _57  and  _58
REMARK   29  A    between atoms: _57  and  _60
REMARK   30  A    between atoms: _60  and  _61
REMARK   31  A    between atoms: _66  and  _68
REMARK   32  A    between atoms: _68  and  _69
REMARK   33  A    between atoms: _68  and  _71
REMARK   34  A    between atoms: _71  and  _72
REMARK   35  A    between atoms: _77  and  _78
REMARK   36  A    between atoms: _80  and  _82
REMARK   37  A    between atoms: _82  and  _83
REMARK   38  A    between atoms: _82  and  _85
REMARK   39  A    between atoms: _85  and  _86
REMARK   40  A    between atoms: _92  and  _93
REMARK   41  A    between atoms: _98  and  _100
REMARK   42  A    between atoms: _100  and  _101
REMARK   43  A    between atoms: _104  and  _106
REMARK   44  A    between atoms: _106  and  _107
REMARK   45  A    between atoms: _106  and  _109
REMARK   46  A    between atoms: _109  and  _110
REMARK   47  A    between atoms: _113  and  _115
REMARK   48  A    between atoms: _115  and  _116
REMARK   49  A    between atoms: _115  and  _118
REMARK   50  A    between atoms: _118  and  _119
REMARK   51  A    between atoms: _124  and  _125
REMARK   52  A    between atoms: _127  and  _129
REMARK   53  A    between atoms: _129  and  _130
REMARK   54  A    between atoms: _129  and  _132
REMARK   55  A    between atoms: _132  and  _133
REMARK   56  A    between atoms: _135  and  _137
REMARK   57  A    between atoms: _137  and  _138
REMARK   58  A    between atoms: _137  and  _140
REMARK   59  A    between atoms: _140  and  _141
REMARK   60  A    between atoms: _144  and  _146
REMARK   61  A    between atoms: _146  and  _147
REMARK   62  A    between atoms: _146  and  _149
REMARK   63  A    between atoms: _149  and  _150
REMARK   64  A    between atoms: _155  and  _157
REMARK   65  A    between atoms: _157  and  _158
REMARK   66  A    between atoms: _157  and  _160
REMARK   67  A    between atoms: _160  and  _161
REMARK   68  A    between atoms: _161  and  _162
REMARK   69  A    between atoms: _166  and  _167
REMARK   70  A    between atoms: _172  and  _174
REMARK   71  A    between atoms: _174  and  _175
REMARK   72  A    between atoms: _174  and  _177
REMARK   73  A    between atoms: _177  and  _178
REMARK   74  A    between atoms: _183  and  _185
REMARK   75  A    between atoms: _185  and  _186
REMARK   76  A    between atoms: _185  and  _188
REMARK   77  A    between atoms: _188  and  _189
REMARK   78  A    between atoms: _194  and  _196
REMARK   79  A    between atoms: _196  and  _197
REMARK   80  A    between atoms: _196  and  _199
REMARK   81  A    between atoms: _199  and  _200
REMARK   82  A    between atoms: _203  and  _205
REMARK   83  A    between atoms: _205  and  _206
REMARK   84  A    between atoms: _208  and  _210
REMARK   85  A    between atoms: _210  and  _211
REMARK   86  A    between atoms: _210  and  _213
REMARK   87  A    between atoms: _213  and  _214
REMARK   88  A    between atoms: _216  and  _218
REMARK   89  A    between atoms: _218  and  _219
REMARK   90  A    between atoms: _218  and  _221
REMARK   91  A    between atoms: _221  and  _222
REMARK   92  A    between atoms: _225  and  _227
REMARK   93  A    between atoms: _227  and  _228
REMARK   94  A    between atoms: _227  and  _230
REMARK   95  A    between atoms: _230  and  _231
REMARK   96  A    between atoms: _231  and  _232
REMARK   97  A    between atoms: _232  and  _233
REMARK   98  A    between atoms: _233  and  _234
REMARK   99  A    between atoms: _238  and  _240
REMARK  100  A    between atoms: _240  and  _241
REMARK  101  A    between atoms: _240  and  _243
REMARK  102  A    between atoms: _243  and  _244
REMARK  103  A    between atoms: _247  and  _249
REMARK  104  A    between atoms: _249  and  _250
REMARK  105  A    between atoms: _252  and  _254
REMARK  106  A    between atoms: _254  and  _255
REMARK  107  A    between atoms: _254  and  _257
REMARK  108  A    between atoms: _257  and  _258
REMARK  109  A    between atoms: _260  and  _262
REMARK  110  A    between atoms: _262  and  _263
REMARK  111  A    between atoms: _265  and  _267
REMARK  112  A    between atoms: _267  and  _268
REMARK  113  A    between atoms: _267  and  _270
REMARK  114  A    between atoms: _270  and  _271
REMARK  115  A    between atoms: _274  and  _276
REMARK  116  A    between atoms: _276  and  _277
REMARK  117  A    between atoms: _276  and  _279
REMARK  118  A    between atoms: _279  and  _280
REMARK  119  A    between atoms: _283  and  _285
REMARK  120  A    between atoms: _285  and  _286
REMARK  121  A    between atoms: _285  and  _288
REMARK  122  A    between atoms: _288  and  _289
REMARK  123  A    between atoms: _294  and  _296
REMARK  124  A    between atoms: _296  and  _297
REMARK  125  A    between atoms: _296  and  _299
REMARK  126  A    between atoms: _299  and  _300
REMARK  127  A    between atoms: _303  and  _305
REMARK  128  A    between atoms: _305  and  _306
REMARK  129  A    between atoms: _305  and  _308
REMARK  130  A    between atoms: _308  and  _309
REMARK  131  A    between atoms: _311  and  _313
REMARK  132  A    between atoms: _313  and  _314
REMARK  133  A    between atoms: _313  and  _316
REMARK  134  A    between atoms: _316  and  _317
REMARK  135  A    between atoms: _317  and  _318
REMARK  136  A    between atoms: _318  and  _319
REMARK  137  A    between atoms: _328  and  _330
REMARK  138  A    between atoms: _330  and  _331
REMARK  139  A    between atoms: _330  and  _333
REMARK  140  A    between atoms: _333  and  _334
REMARK                            x       y       z     vdW  Elec       q    Type
REMARK                         _______ _______ _______ _____ _____    ______ ____
ROOT
ATOM      1  CB  ASN A   1      -8.115  60.021  12.720  0.00  0.00    +0.110 C 
ENDROOT
BRANCH   1   2
ATOM      2  CG  ASN A   1      -7.382  59.326  13.828  0.00  0.00    +0.221 C 
ATOM      3  ND2 ASN A   1      -8.129  58.725  14.747  0.00  0.00    -0.329 N 
ATOM      4 HD21 ASN A   1      -7.677  58.230  15.542  0.00  0.00    +0.145 HD
ATOM      5 HD22 ASN A   1      -9.166  58.750  14.672  0.00  0.00    +0.145 HD
ATOM      6  OD1 ASN A   1      -6.157  59.330  13.865  0.00  0.00    -0.275 OA
ENDBRANCH   1   2
BRANCH   1   7
ATOM      7  CA  ASN A   1      -8.110  61.544  12.880  0.00  0.00    +0.142 C 
BRANCH   7   8
ATOM      8  N   ASN A   1      -8.717  61.923  14.167  0.00  0.00    -0.239 NA
ATOM      9  H   ASN A   1      -9.601  61.461  14.461  0.00  0.00    +0.142 HD
ENDBRANCH   7   8
BRANCH   7  10
ATOM     10  C   ASN A   1      -8.759  62.159  11.641  0.00  0.00    +0.225 C 
ATOM     11  O   ASN A   1      -8.463  61.735  10.527  0.00  0.00    -0.287 OA
ENDBRANCH   7  10
ENDBRANCH   1   7
TORSDOF 4
REMARK  Name = ../refined-set-2016/3g2z/3g2z_pocket.pdb
REMARK  140 active torsions:
REMARK  status: ('A' for Active; 'I' for Inactive)
REMARK    1  A    between atoms: _1  and  _3
REMARK    2  A    between atoms: _3  and  _4
REMARK    3  A    between atoms: _3  and  _6
REMARK    4  A    between atoms: _6  and  _7
REMARK    5  A    between atoms: _7  and  _8
REMARK    6  A    between atoms: _10  and  _12
REMARK    7  A    between atoms: _12  and  _13
REMARK    8  A    between atoms: _12  and  _15
REMARK    9  A    between atoms: _17  and  _19
REMARK   10  A    between atoms: _19  and  _20
REMARK   11  A    between atoms: _19  and  _22
REMARK   12  A    between atoms: _22  and  _23
REMARK   13  A    between atoms: _25  and  _27
REMARK   14  A    between atoms: _27  and  _28
REMARK   15  A    between atoms: _27  and  _30
REMARK   16  A    between atoms: _30  and  _31
REMARK   17  A    between atoms: _34  and  _36
REMARK   18  A    between atoms: _36  and  _37
REMARK   19  A    between atoms: _36  and  _39
REMARK   20  A    between atoms: _39  and  _40
REMARK   21  A    between atoms: _40  and  _41
REMARK   22  A    between atoms: _41  and  _42
REMARK   23  A    between atoms: _42  and  _43
REMARK   24  A    between atoms: _47  and  _49
REMARK   25  A    between atoms: _49  and  _50
REMARK   26  A    between atoms: _49  and  _52
REMARK   27  A    between atoms: _55  and  _57
REMARK   28  A    between atoms: _57  and  _58
REMARK   29  A    between atoms: _57  and  _60
REMARK   30  A    between atoms: _60  and  _61
REMARK   31  A    between atoms: _66  and  _68
REMARK   32  A    between atoms: _68  and  _69
REMARK   33  A    between atoms: _68  and  _71
REMARK   34  A    between atoms: _71  and  _72
REMARK   35  A    between atoms: _77  and  _78
REMARK   36  A    between atoms: _80  and  _82
REMARK   37  A    between atoms: _82  and  _83
REMARK   38  A    between atoms: _82  and  _85
REMARK   39  A    between atoms: _85  and  _86
REMARK   40  A    between atoms: _92  and  _93
REMARK   41  A    between atoms: _98  and  _100
REMARK   42  A    between atoms: _100  and  _101
REMARK   43  A    between atoms: _104  and  _106
REMARK   44  A    between atoms: _106  and  _107
REMARK   45  A    between atoms: _106  and  _109
REMARK   46  A    between atoms: _109  and  _110
REMARK   47  A    between atoms: _113  and  _115
REMARK   48  A    between atoms: _115  and  _116
REMARK   49  A    between atoms: _115  and  _118
REMARK   50  A    between atoms: _118  and  _119
REMARK   51  A    between atoms: _124  and  _125
REMARK   52  A    between atoms: _127  and  _129
REMARK   53  A    between atoms: _129  and  _130
REMARK   54  A    between atoms: _129  and  _132
REMARK   55  A    between atoms: _132  and  _133
REMARK   56  A    between atoms: _135  and  _137
REMARK   57  A    between atoms: _137  and  _138
REMARK   58  A    between atoms: _137  and  _140
REMARK   59  A    between atoms: _140  and  _141
REMARK   60  A    between atoms: _144  and  _146
REMARK   61  A    between atoms: _146  and  _147
REMARK   62  A    between atoms: _146  and  _149
REMARK   63  A    between atoms: _149  and  _150
REMARK   64  A    between atoms: _155  and  _157
REMARK   65  A    between atoms: _157  and  _158
REMARK   66  A    between atoms: _157  and  _160
REMARK   67  A    between atoms: _160  and  _161
REMARK   68  A    between atoms: _161  and  _162
REMARK   69  A    between atoms: _166  and  _167
REMARK   70  A    between atoms: _172  and  _174
REMARK   71  A    between atoms: _174  and  _175
REMARK   72  A    between atoms: _174  and  _177
REMARK   73  A    between atoms: _177  and  _178
REMARK   74  A    between atoms: _183  and  _185
REMARK   75  A    between atoms: _185  and  _186
REMARK   76  A    between atoms: _185  and  _188
REMARK   77  A    between atoms: _188  and  _189
REMARK   78  A    between atoms: _194  and  _196
REMARK   79  A    between atoms: _196  and  _197
REMARK   80  A    between atoms: _196  and  _199
REMARK   81  A    between atoms: _199  and  _200
REMARK   82  A    between atoms: _203  and  _205
REMARK   83  A    between atoms: _205  and  _206
REMARK   84  A    between atoms: _208  and  _210
REMARK   85  A    between atoms: _210  and  _211
REMARK   86  A    between atoms: _210  and  _213
REMARK   87  A    between atoms: _213  and  _214
REMARK   88  A    between atoms: _216  and  _218
REMARK   89  A    between atoms: _218  and  _219
REMARK   90  A    between atoms: _218  and  _221
REMARK   91  A    between atoms: _221  and  _222
REMARK   92  A    between atoms: _225  and  _227
REMARK   93  A    between atoms: _227  and  _228
REMARK   94  A    between atoms: _227  and  _230
REMARK   95  A    between atoms: _230  and  _231
REMARK   96  A    between atoms: _231  and  _232
REMARK   97  A    between atoms: _232  and  _233
REMARK   98  A    between atoms: _233  and  _234
REMARK   99  A    between atoms: _238  and  _240
REMARK  100  A    between atoms: _240  and  _241
REMARK  101  A    between atoms: _240  and  _243
REMARK  102  A    between atoms: _243  and  _244
REMARK  103  A    between atoms: _247  and  _249
REMARK  104  A    between atoms: _249  and  _250
REMARK  105  A    between atoms: _252  and  _254
REMARK  106  A    between atoms: _254  and  _255
REMARK  107  A    between atoms: _254  and  _257
REMARK  108  A    between atoms: _257  and  _258
REMARK  109  A    between atoms: _260  and  _262
REMARK  110  A    between atoms: _262  and  _263
REMARK  111  A    between atoms: _265  and  _267
REMARK  112  A    between atoms: _267  and  _268
REMARK  113  A    between atoms: _267  and  _270
REMARK  114  A    between atoms: _270  and  _271
REMARK  115  A    between atoms: _274  and  _276
REMARK  116  A    between atoms: _276  and  _277
REMARK  117  A    between atoms: _276  and  _279
REMARK  118  A    between atoms: _279  and  _280
REMARK  119  A    between atoms: _283  and  _285
REMARK  120  A    between atoms: _285  and  _286
REMARK  121  A    between atoms: _285  and  _288
REMARK  122  A    between atoms: _288  and  _289
REMARK  123  A    between atoms: _294  and  _296
REMARK  124  A    between atoms: _296  and  _297
REMARK  125  A    between atoms: _296  and  _299
REMARK  126  A    between atoms: _299  and  _300
REMARK  127  A    between atoms: _303  and  _305
REMARK  128  A    between atoms: _305  and  _306
REMARK  129  A    between atoms: _305  and  _308
REMARK  130  A    between atoms: _308  and  _309
REMARK  131  A    between atoms: _311  and  _313
REMARK  132  A    between atoms: _313  and  _314
REMARK  133  A    between atoms: _313  and  _316
REMARK  134  A    between atoms: _316  and  _317
REMARK  135  A    between atoms: _317  and  _318
REMARK  136  A    between atoms: _318  and  _319
REMARK  137  A    between atoms: _328  and  _330
REMARK  138  A    between atoms: _330  and  _331
REMARK  139  A    between atoms: _330  and  _333
REMARK  140  A    between atoms: _333  and  _334
REMARK                            x       y       z     vdW  Elec       q    Type
REMARK                         _______ _______ _______ _____ _____    ______ ____
ROOT
ATOM      1  CB  ASN A   1       6.069  49.195  17.356  0.00  0.00    +0.110 C 
ENDROOT
BRANCH   1   2
ATOM      2  CG  ASN A   1       4.917  49.644  16.471  0.00  0.00    +0.221 C 
ATOM      3  OD1 ASN A   1       3.748  49.345  16.766  0.00  0.00    -0.275 OA
ATOM      4  ND2 ASN A   1       5.236  50.338  15.362  0.00  0.00    -0.329 N 
ATOM      5 HD21 ASN A   1       6.230  50.564  15.158  0.00  0.00    +0.145 HD
ATOM      6 HD22 ASN A   1       4.488  50.648  14.709  0.00  0.00    +0.145 HD
ENDBRANCH   1   2
BRANCH   1   7
ATOM      7  CA  ASN A   1       5.770  47.879  18.067  0.00  0.00    +0.142 C 
BRANCH   7   8
ATOM      8  N   ASN A   1       6.854  47.542  18.984  0.00  0.00    -0.239 NA
ATOM      9  H   ASN A   1       7.637  48.211  19.129  0.00  0.00    +0.142 HD
ENDBRANCH   7   8
BRANCH   7  10
ATOM     10  C   ASN A   1       5.551  46.798  17.016  0.00  0.00    +0.225 C 
ATOM     11  O   ASN A   1       6.529  46.231  16.501  0.00  0.00    -0.287 OA
ENDBRANCH   7  10
ENDBRANCH   1   7
TORSDOF 4
REMARK  Name = ../refined-set-2016/3g2z/3g2z_pocket.pdb
REMARK  140 active torsions:
REMARK  status: ('A' for Active; 'I' for Inactive)
REMARK    1  A    between atoms: _1  and  _3
REMARK    2  A    between atoms: _3  and  _4
REMARK    3  A    between atoms: _3  and  _6
REMARK    4  A    between atoms: _6  and  _7
REMARK    5  A    between atoms: _7  and  _8
REMARK    6  A    between atoms: _10  and  _12
REMARK    7  A    between atoms: _12  and  _13
REMARK    8  A    between atoms: _12  and  _15
REMARK    9  A    between atoms: _17  and  _19
REMARK   10  A    between atoms: _19  and  _20
REMARK   11  A    between atoms: _19  and  _22
REMARK   12  A    between atoms: _22  and  _23
REMARK   13  A    between atoms: _25  and  _27
REMARK   14  A    between atoms: _27  and  _28
REMARK   15  A    between atoms: _27  and  _30
REMARK   16  A    between atoms: _30  and  _31
REMARK   17  A    between atoms: _34  and  _36
REMARK   18  A    between atoms: _36  and  _37
REMARK   19  A    between atoms: _36  and  _39
REMARK   20  A    between atoms: _39  and  _40
REMARK   21  A    between atoms: _40  and  _41
REMARK   22  A    between atoms: _41  and  _42
REMARK   23  A    between atoms: _42  and  _43
REMARK   24  A    between atoms: _47  and  _49
REMARK   25  A    between atoms: _49  and  _50
REMARK   26  A    between atoms: _49  and  _52
REMARK   27  A    between atoms: _55  and  _57
REMARK   28  A    between atoms: _57  and  _58
REMARK   29  A    between atoms: _57  and  _60
REMARK   30  A    between atoms: _60  and  _61
REMARK   31  A    between atoms: _66  and  _68
REMARK   32  A    between atoms: _68  and  _69
REMARK   33  A    between atoms: _68  and  _71
REMARK   34  A    between atoms: _71  and  _72
REMARK   35  A    between atoms: _77  and  _78
REMARK   36  A    between atoms: _80  and  _82
REMARK   37  A    between atoms: _82  and  _83
REMARK   38  A    between atoms: _82  and  _85
REMARK   39  A    between atoms: _85  and  _86
REMARK   40  A    between atoms: _92  and  _93
REMARK   41  A    between atoms: _98  and  _100
REMARK   42  A    between atoms: _100  and  _101
REMARK   43  A    between atoms: _104  and  _106
REMARK   44  A    between atoms: _106  and  _107
REMARK   45  A    between atoms: _106  and  _109
REMARK   46  A    between atoms: _109  and  _110
REMARK   47  A    between atoms: _113  and  _115
REMARK   48  A    between atoms: _115  and  _116
REMARK   49  A    between atoms: _115  and  _118
REMARK   50  A    between atoms: _118  and  _119
REMARK   51  A    between atoms: _124  and  _125
REMARK   52  A    between atoms: _127  and  _129
REMARK   53  A    between atoms: _129  and  _130
REMARK   54  A    between atoms: _129  and  _132
REMARK   55  A    between atoms: _132  and  _133
REMARK   56  A    between atoms: _135  and  _137
REMARK   57  A    between atoms: _137  and  _138
REMARK   58  A    between atoms: _137  and  _140
REMARK   59  A    between atoms: _140  and  _141
REMARK   60  A    between atoms: _144  and  _146
REMARK   61  A    between atoms: _146  and  _147
REMARK   62  A    between atoms: _146  and  _149
REMARK   63  A    between atoms: _149  and  _150
REMARK   64  A    between atoms: _155  and  _157
REMARK   65  A    between atoms: _157  and  _158
REMARK   66  A    between atoms: _157  and  _160
REMARK   67  A    between atoms: _160  and  _161
REMARK   68  A    between atoms: _161  and  _162
REMARK   69  A    between atoms: _166  and  _167
REMARK   70  A    between atoms: _172  and  _174
REMARK   71  A    between atoms: _174  and  _175
REMARK   72  A    between atoms: _174  and  _177
REMARK   73  A    between atoms: _177  and  _178
REMARK   74  A    between atoms: _183  and  _185
REMARK   75  A    between atoms: _185  and  _186
REMARK   76  A    between atoms: _185  and  _188
REMARK   77  A    between atoms: _188  and  _189
REMARK   78  A    between atoms: _194  and  _196
REMARK   79  A    between atoms: _196  and  _197
REMARK   80  A    between atoms: _196  and  _199
REMARK   81  A    between atoms: _199  and  _200
REMARK   82  A    between atoms: _203  and  _205
REMARK   83  A    between atoms: _205  and  _206
REMARK   84  A    between atoms: _208  and  _210
REMARK   85  A    between atoms: _210  and  _211
REMARK   86  A    between atoms: _210  and  _213
REMARK   87  A    between atoms: _213  and  _214
REMARK   88  A    between atoms: _216  and  _218
REMARK   89  A    between atoms: _218  and  _219
REMARK   90  A    between atoms: _218  and  _221
REMARK   91  A    between atoms: _221  and  _222
REMARK   92  A    between atoms: _225  and  _227
REMARK   93  A    between atoms: _227  and  _228
REMARK   94  A    between atoms: _227  and  _230
REMARK   95  A    between atoms: _230  and  _231
REMARK   96  A    between atoms: _231  and  _232
REMARK   97  A    between atoms: _232  and  _233
REMARK   98  A    between atoms: _233  and  _234
REMARK   99  A    between atoms: _238  and  _240
REMARK  100  A    between atoms: _240  and  _241
REMARK  101  A    between atoms: _240  and  _243
REMARK  102  A    between atoms: _243  and  _244
REMARK  103  A    between atoms: _247  and  _249
REMARK  104  A    between atoms: _249  and  _250
REMARK  105  A    between atoms: _252  and  _254
REMARK  106  A    between atoms: _254  and  _255
REMARK  107  A    between atoms: _254  and  _257
REMARK  108  A    between atoms: _257  and  _258
REMARK  109  A    between atoms: _260  and  _262
REMARK  110  A    between atoms: _262  and  _263
REMARK  111  A    between atoms: _265  and  _267
REMARK  112  A    between atoms: _267  and  _268
REMARK  113  A    between atoms: _267  and  _270
REMARK  114  A    between atoms: _270  and  _271
REMARK  115  A    between atoms: _274  and  _276
REMARK  116  A    between atoms: _276  and  _277
REMARK  117  A    between atoms: _276  and  _279
REMARK  118  A    between atoms: _279  and  _280
REMARK  119  A    between atoms: _283  and  _285
REMARK  120  A    between atoms: _285  and  _286
REMARK  121  A    between atoms: _285  and  _288
REMARK  122  A    between atoms: _288  and  _289
REMARK  123  A    between atoms: _294  and  _296
REMARK  124  A    between atoms: _296  and  _297
REMARK  125  A    between atoms: _296  and  _299
REMARK  126  A    between atoms: _299  and  _300
REMARK  127  A    between atoms: _303  and  _305
REMARK  128  A    between atoms: _305  and  _306
REMARK  129  A    between atoms: _305  and  _308
REMARK  130  A    between atoms: _308  and  _309
REMARK  131  A    between atoms: _311  and  _313
REMARK  132  A    between atoms: _313  and  _314
REMARK  133  A    between atoms: _313  and  _316
REMARK  134  A    between atoms: _316  and  _317
REMARK  135  A    between atoms: _317  and  _318
REMARK  136  A    between atoms: _318  and  _319
REMARK  137  A    between atoms: _328  and  _330
REMARK  138  A    between atoms: _330  and  _331
REMARK  139  A    between atoms: _330  and  _333
REMARK  140  A    between atoms: _333  and  _334
REMARK                            x       y       z     vdW  Elec       q    Type
REMARK                         _______ _______ _______ _____ _____    ______ ____
ROOT
ATOM      1  CA  THR A   1       2.836  48.095  13.088  0.00  0.00    +0.172 C 
ENDROOT
BRANCH   1   2
ATOM      2  C   THR A   1       3.796  48.804  12.141  0.00  0.00    +0.241 C 
ATOM      3  N   GLY A   2       5.094  48.744  12.409  0.00  0.00    -0.296 N 
ATOM      4  H   GLY A   2       5.454  48.029  13.073  0.00  0.00    +0.150 HD
ATOM      5  O   THR A   1       3.356  49.413  11.166  0.00  0.00    -0.274 OA
BRANCH   3   6
ATOM      6  CA  GLY A   2       6.020  49.681  11.774  0.00  0.00    +0.163 C 
BRANCH   6   7
ATOM      7  C   GLY A   2       6.917  49.229  10.631  0.00  0.00    +0.229 C 
ATOM      8  O   GLY A   2       7.685  50.044  10.099  0.00  0.00    -0.286 OA
ENDBRANCH   6   7
ENDBRANCH   3   6
ENDBRANCH   1   2
BRANCH   1   9
ATOM      9  N   THR A   1       3.436  47.483  14.281  0.00  0.00    -0.236 NA
ATOM     10  H   THR A   1       3.709  48.074  15.092  0.00  0.00    +0.142 HD
ENDBRANCH   1   9
BRANCH   1  11
ATOM     11  CB  THR A   1       1.764  49.149  13.483  0.00  0.00    +0.135 C 
ATOM     12  CG2 THR A   1       0.747  48.587  14.471  0.00  0.00    +0.034 C 
BRANCH  11  13
ATOM     13  OG1 THR A   1       2.416  50.301  14.044  0.00  0.00    -0.383 OA
ATOM     14  HG1 THR A   1       1.735  50.974  14.296  0.00  0.00    +0.210 HD
ENDBRANCH  11  13
ENDBRANCH   1  11
TORSDOF 6
REMARK  Name = ../refined-set-2016/3g2z/3g2z_pocket.pdb
REMARK  140 active torsions:
REMARK  status: ('A' for Active; 'I' for Inactive)
REMARK    1  A    between atoms: _1  and  _3
REMARK    2  A    between atoms: _3  and  _4
REMARK    3  A    between atoms: _3  and  _6
REMARK    4  A    between atoms: _6  and  _7
REMARK    5  A    between atoms: _7  and  _8
REMARK    6  A    between atoms: _10  and  _12
REMARK    7  A    between atoms: _12  and  _13
REMARK    8  A    between atoms: _12  and  _15
REMARK    9  A    between atoms: _17  and  _19
REMARK   10  A    between atoms: _19  and  _20
REMARK   11  A    between atoms: _19  and  _22
REMARK   12  A    between atoms: _22  and  _23
REMARK   13  A    between atoms: _25  and  _27
REMARK   14  A    between atoms: _27  and  _28
REMARK   15  A    between atoms: _27  and  _30
REMARK   16  A    between atoms: _30  and  _31
REMARK   17  A    between atoms: _34  and  _36
REMARK   18  A    between atoms: _36  and  _37
REMARK   19  A    between atoms: _36  and  _39
REMARK   20  A    between atoms: _39  and  _40
REMARK   21  A    between atoms: _40  and  _41
REMARK   22  A    between atoms: _41  and  _42
REMARK   23  A    between atoms: _42  and  _43
REMARK   24  A    between atoms: _47  and  _49
REMARK   25  A    between atoms: _49  and  _50
REMARK   26  A    between atoms: _49  and  _52
REMARK   27  A    between atoms: _55  and  _57
REMARK   28  A    between atoms: _57  and  _58
REMARK   29  A    between atoms: _57  and  _60
REMARK   30  A    between atoms: _60  and  _61
REMARK   31  A    between atoms: _66  and  _68
REMARK   32  A    between atoms: _68  and  _69
REMARK   33  A    between atoms: _68  and  _71
REMARK   34  A    between atoms: _71  and  _72
REMARK   35  A    between atoms: _77  and  _78
REMARK   36  A    between atoms: _80  and  _82
REMARK   37  A    between atoms: _82  and  _83
REMARK   38  A    between atoms: _82  and  _85
REMARK   39  A    between atoms: _85  and  _86
REMARK   40  A    between atoms: _92  and  _93
REMARK   41  A    between atoms: _98  and  _100
REMARK   42  A    between atoms: _100  and  _101
REMARK   43  A    between atoms: _104  and  _106
REMARK   44  A    between atoms: _106  and  _107
REMARK   45  A    between atoms: _106  and  _109
REMARK   46  A    between atoms: _109  and  _110
REMARK   47  A    between atoms: _113  and  _115
REMARK   48  A    between atoms: _115  and  _116
REMARK   49  A    between atoms: _115  and  _118
REMARK   50  A    between atoms: _118  and  _119
REMARK   51  A    between atoms: _124  and  _125
REMARK   52  A    between atoms: _127  and  _129
REMARK   53  A    between atoms: _129  and  _130
REMARK   54  A    between atoms: _129  and  _132
REMARK   55  A    between atoms: _132  and  _133
REMARK   56  A    between atoms: _135  and  _137
REMARK   57  A    between atoms: _137  and  _138
REMARK   58  A    between atoms: _137  and  _140
REMARK   59  A    between atoms: _140  and  _141
REMARK   60  A    between atoms: _144  and  _146
REMARK   61  A    between atoms: _146  and  _147
REMARK   62  A    between atoms: _146  and  _149
REMARK   63  A    between atoms: _149  and  _150
REMARK   64  A    between atoms: _155  and  _157
REMARK   65  A    between atoms: _157  and  _158
REMARK   66  A    between atoms: _157  and  _160
REMARK   67  A    between atoms: _160  and  _161
REMARK   68  A    between atoms: _161  and  _162
REMARK   69  A    between atoms: _166  and  _167
REMARK   70  A    between atoms: _172  and  _174
REMARK   71  A    between atoms: _174  and  _175
REMARK   72  A    between atoms: _174  and  _177
REMARK   73  A    between atoms: _177  and  _178
REMARK   74  A    between atoms: _183  and  _185
REMARK   75  A    between atoms: _185  and  _186
REMARK   76  A    between atoms: _185  and  _188
REMARK   77  A    between atoms: _188  and  _189
REMARK   78  A    between atoms: _194  and  _196
REMARK   79  A    between atoms: _196  and  _197
REMARK   80  A    between atoms: _196  and  _199
REMARK   81  A    between atoms: _199  and  _200
REMARK   82  A    between atoms: _203  and  _205
REMARK   83  A    between atoms: _205  and  _206
REMARK   84  A    between atoms: _208  and  _210
REMARK   85  A    between atoms: _210  and  _211
REMARK   86  A    between atoms: _210  and  _213
REMARK   87  A    between atoms: _213  and  _214
REMARK   88  A    between atoms: _216  and  _218
REMARK   89  A    between atoms: _218  and  _219
REMARK   90  A    between atoms: _218  and  _221
REMARK   91  A    between atoms: _221  and  _222
REMARK   92  A    between atoms: _225  and  _227
REMARK   93  A    between atoms: _227  and  _228
REMARK   94  A    between atoms: _227  and  _230
REMARK   95  A    between atoms: _230  and  _231
REMARK   96  A    between atoms: _231  and  _232
REMARK   97  A    between atoms: _232  and  _233
REMARK   98  A    between atoms: _233  and  _234
REMARK   99  A    between atoms: _238  and  _240
REMARK  100  A    between atoms: _240  and  _241
REMARK  101  A    between atoms: _240  and  _243
REMARK  102  A    between atoms: _243  and  _244
REMARK  103  A    between atoms: _247  and  _249
REMARK  104  A    between atoms: _249  and  _250
REMARK  105  A    between atoms: _252  and  _254
REMARK  106  A    between atoms: _254  and  _255
REMARK  107  A    between atoms: _254  and  _257
REMARK  108  A    between atoms: _257  and  _258
REMARK  109  A    between atoms: _260  and  _262
REMARK  110  A    between atoms: _262  and  _263
REMARK  111  A    between atoms: _265  and  _267
REMARK  112  A    between atoms: _267  and  _268
REMARK  113  A    between atoms: _267  and  _270
REMARK  114  A    between atoms: _270  and  _271
REMARK  115  A    between atoms: _274  and  _276
REMARK  116  A    between atoms: _276  and  _277
REMARK  117  A    between atoms: _276  and  _279
REMARK  118  A    between atoms: _279  and  _280
REMARK  119  A    between atoms: _283  and  _285
REMARK  120  A    between atoms: _285  and  _286
REMARK  121  A    between atoms: _285  and  _288
REMARK  122  A    between atoms: _288  and  _289
REMARK  123  A    between atoms: _294  and  _296
REMARK  124  A    between atoms: _296  and  _297
REMARK  125  A    between atoms: _296  and  _299
REMARK  126  A    between atoms: _299  and  _300
REMARK  127  A    between atoms: _303  and  _305
REMARK  128  A    between atoms: _305  and  _306
REMARK  129  A    between atoms: _305  and  _308
REMARK  130  A    between atoms: _308  and  _309
REMARK  131  A    between atoms: _311  and  _313
REMARK  132  A    between atoms: _313  and  _314
REMARK  133  A    between atoms: _313  and  _316
REMARK  134  A    between atoms: _316  and  _317
REMARK  135  A    between atoms: _317  and  _318
REMARK  136  A    between atoms: _318  and  _319
REMARK  137  A    between atoms: _328  and  _330
REMARK  138  A    between atoms: _330  and  _331
REMARK  139  A    between atoms: _330  and  _333
REMARK  140  A    between atoms: _333  and  _334
REMARK                            x       y       z     vdW  Elec       q    Type
REMARK                         _______ _______ _______ _____ _____    ______ ____
ROOT
ATOM      1  CA  SER A   1       7.136  52.813   7.355  0.00  0.00    +0.163 C 
ENDROOT
BRANCH   1   2
ATOM      2  N   SER A   1       7.066  51.362   7.294  0.00  0.00    -0.237 NA
ATOM      3  H   SER A   1       7.235  50.797   8.151  0.00  0.00    +0.142 HD
ENDBRANCH   1   2
BRANCH   1   4
ATOM      4  CB  SER A   1       8.593  53.275   7.467  0.00  0.00    +0.227 C 
ATOM      5  OG  SER A   1       9.403  52.848   6.655  0.00  0.00    -0.287 OA
ENDBRANCH   1   4
BRANCH   1   6
ATOM      6  C   SER A   1       6.210  53.310   8.470  0.00  0.00    +0.162 C 
BRANCH   6   7
ATOM      7  O   SER A   1       4.869  52.886   8.190  0.00  0.00    -0.380 OA
ATOM      8  H   SER A   1       4.839  51.897   8.147  0.00  0.00    +0.211 HD
ENDBRANCH   6   7
ENDBRANCH   1   6
TORSDOF 4
REMARK  Name = ../refined-set-2016/3g2z/3g2z_pocket.pdb
REMARK  140 active torsions:
REMARK  status: ('A' for Active; 'I' for Inactive)
REMARK    1  A    between atoms: _1  and  _3
REMARK    2  A    between atoms: _3  and  _4
REMARK    3  A    between atoms: _3  and  _6
REMARK    4  A    between atoms: _6  and  _7
REMARK    5  A    between atoms: _7  and  _8
REMARK    6  A    between atoms: _10  and  _12
REMARK    7  A    between atoms: _12  and  _13
REMARK    8  A    between atoms: _12  and  _15
REMARK    9  A    between atoms: _17  and  _19
REMARK   10  A    between atoms: _19  and  _20
REMARK   11  A    between atoms: _19  and  _22
REMARK   12  A    between atoms: _22  and  _23
REMARK   13  A    between atoms: _25  and  _27
REMARK   14  A    between atoms: _27  and  _28
REMARK   15  A    between atoms: _27  and  _30
REMARK   16  A    between atoms: _30  and  _31
REMARK   17  A    between atoms: _34  and  _36
REMARK   18  A    between atoms: _36  and  _37
REMARK   19  A    between atoms: _36  and  _39
REMARK   20  A    between atoms: _39  and  _40
REMARK   21  A    between atoms: _40  and  _41
REMARK   22  A    between atoms: _41  and  _42
REMARK   23  A    between atoms: _42  and  _43
REMARK   24  A    between atoms: _47  and  _49
REMARK   25  A    between atoms: _49  and  _50
REMARK   26  A    between atoms: _49  and  _52
REMARK   27  A    between atoms: _55  and  _57
REMARK   28  A    between atoms: _57  and  _58
REMARK   29  A    between atoms: _57  and  _60
REMARK   30  A    between atoms: _60  and  _61
REMARK   31  A    between atoms: _66  and  _68
REMARK   32  A    between atoms: _68  and  _69
REMARK   33  A    between atoms: _68  and  _71
REMARK   34  A    between atoms: _71  and  _72
REMARK   35  A    between atoms: _77  and  _78
REMARK   36  A    between atoms: _80  and  _82
REMARK   37  A    between atoms: _82  and  _83
REMARK   38  A    between atoms: _82  and  _85
REMARK   39  A    between atoms: _85  and  _86
REMARK   40  A    between atoms: _92  and  _93
REMARK   41  A    between atoms: _98  and  _100
REMARK   42  A    between atoms: _100  and  _101
REMARK   43  A    between atoms: _104  and  _106
REMARK   44  A    between atoms: _106  and  _107
REMARK   45  A    between atoms: _106  and  _109
REMARK   46  A    between atoms: _109  and  _110
REMARK   47  A    between atoms: _113  and  _115
REMARK   48  A    between atoms: _115  and  _116
REMARK   49  A    between atoms: _115  and  _118
REMARK   50  A    between atoms: _118  and  _119
REMARK   51  A    between atoms: _124  and  _125
REMARK   52  A    between atoms: _127  and  _129
REMARK   53  A    between atoms: _129  and  _130
REMARK   54  A    between atoms: _129  and  _132
REMARK   55  A    between atoms: _132  and  _133
REMARK   56  A    between atoms: _135  and  _137
REMARK   57  A    between atoms: _137  and  _138
REMARK   58  A    between atoms: _137  and  _140
REMARK   59  A    between atoms: _140  and  _141
REMARK   60  A    between atoms: _144  and  _146
REMARK   61  A    between atoms: _146  and  _147
REMARK   62  A    between atoms: _146  and  _149
REMARK   63  A    between atoms: _149  and  _150
REMARK   64  A    between atoms: _155  and  _157
REMARK   65  A    between atoms: _157  and  _158
REMARK   66  A    between atoms: _157  and  _160
REMARK   67  A    between atoms: _160  and  _161
REMARK   68  A    between atoms: _161  and  _162
REMARK   69  A    between atoms: _166  and  _167
REMARK   70  A    between atoms: _172  and  _174
REMARK   71  A    between atoms: _174  and  _175
REMARK   72  A    between atoms: _174  and  _177
REMARK   73  A    between atoms: _177  and  _178
REMARK   74  A    between atoms: _183  and  _185
REMARK   75  A    between atoms: _185  and  _186
REMARK   76  A    between atoms: _185  and  _188
REMARK   77  A    between atoms: _188  and  _189
REMARK   78  A    between atoms: _194  and  _196
REMARK   79  A    between atoms: _196  and  _197
REMARK   80  A    between atoms: _196  and  _199
REMARK   81  A    between atoms: _199  and  _200
REMARK   82  A    between atoms: _203  and  _205
REMARK   83  A    between atoms: _205  and  _206
REMARK   84  A    between atoms: _208  and  _210
REMARK   85  A    between atoms: _210  and  _211
REMARK   86  A    between atoms: _210  and  _213
REMARK   87  A    between atoms: _213  and  _214
REMARK   88  A    between atoms: _216  and  _218
REMARK   89  A    between atoms: _218  and  _219
REMARK   90  A    between atoms: _218  and  _221
REMARK   91  A    between atoms: _221  and  _222
REMARK   92  A    between atoms: _225  and  _227
REMARK   93  A    between atoms: _227  and  _228
REMARK   94  A    between atoms: _227  and  _230
REMARK   95  A    between atoms: _230  and  _231
REMARK   96  A    between atoms: _231  and  _232
REMARK   97  A    between atoms: _232  and  _233
REMARK   98  A    between atoms: _233  and  _234
REMARK   99  A    between atoms: _238  and  _240
REMARK  100  A    between atoms: _240  and  _241
REMARK  101  A    between atoms: _240  and  _243
REMARK  102  A    between atoms: _243  and  _244
REMARK  103  A    between atoms: _247  and  _249
REMARK  104  A    between atoms: _249  and  _250
REMARK  105  A    between atoms: _252  and  _254
REMARK  106  A    between atoms: _254  and  _255
REMARK  107  A    between atoms: _254  and  _257
REMARK  108  A    between atoms: _257  and  _258
REMARK  109  A    between atoms: _260  and  _262
REMARK  110  A    between atoms: _262  and  _263
REMARK  111  A    between atoms: _265  and  _267
REMARK  112  A    between atoms: _267  and  _268
REMARK  113  A    between atoms: _267  and  _270
REMARK  114  A    between atoms: _270  and  _271
REMARK  115  A    between atoms: _274  and  _276
REMARK  116  A    between atoms: _276  and  _277
REMARK  117  A    between atoms: _276  and  _279
REMARK  118  A    between atoms: _279  and  _280
REMARK  119  A    between atoms: _283  and  _285
REMARK  120  A    between atoms: _285  and  _286
REMARK  121  A    between atoms: _285  and  _288
REMARK  122  A    between atoms: _288  and  _289
REMARK  123  A    between atoms: _294  and  _296
REMARK  124  A    between atoms: _296  and  _297
REMARK  125  A    between atoms: _296  and  _299
REMARK  126  A    between atoms: _299  and  _300
REMARK  127  A    between atoms: _303  and  _305
REMARK  128  A    between atoms: _305  and  _306
REMARK  129  A    between atoms: _305  and  _308
REMARK  130  A    between atoms: _308  and  _309
REMARK  131  A    between atoms: _311  and  _313
REMARK  132  A    between atoms: _313  and  _314
REMARK  133  A    between atoms: _313  and  _316
REMARK  134  A    between atoms: _316  and  _317
REMARK  135  A    between atoms: _317  and  _318
REMARK  136  A    between atoms: _318  and  _319
REMARK  137  A    between atoms: _328  and  _330
REMARK  138  A    between atoms: _330  and  _331
REMARK  139  A    between atoms: _330  and  _333
REMARK  140  A    between atoms: _333  and  _334
REMARK                            x       y       z     vdW  Elec       q    Type
REMARK                         _______ _______ _______ _____ _____    ______ ____
ROOT
ATOM      1  CA  THR A   3       2.781  54.845  13.304  0.00  0.00    +0.176 C 
ENDROOT
BRANCH   1   4
ATOM      2  C   LYS A   2       4.254  55.215  15.223  0.00  0.00    +0.241 C 
ATOM      3  O   LYS A   2       4.563  56.356  14.855  0.00  0.00    -0.273 OA
ATOM      4  N   THR A   3       3.425  54.426  14.550  0.00  0.00    -0.295 N 
ATOM      5  H   THR A   3       3.226  53.475  14.922  0.00  0.00    +0.150 HD
BRANCH   2   6
ATOM      6  CA  LYS A   2       4.831  54.636  16.514  0.00  0.00    +0.149 C 
BRANCH   6   9
ATOM      7  C   ASP A   1       6.979  53.508  16.756  0.00  0.00    +0.239 C 
ATOM      8  O   ASP A   1       6.494  52.515  17.313  0.00  0.00    -0.274 OA
ATOM      9  N   LYS A   2       6.285  54.588  16.421  0.00  0.00    -0.297 N 
ATOM     10  H   LYS A   2       6.795  55.428  16.081  0.00  0.00    +0.150 HD
BRANCH   7  11
ATOM     11  CA  ASP A   1       8.448  53.563  16.381  0.00  0.00    +0.156 C 
BRANCH  11  12
ATOM     12  N   ASP A   1       9.234  52.550  17.079  0.00  0.00    -0.238 NA
ATOM     13  H   ASP A   1       8.781  51.679  17.423  0.00  0.00    +0.142 HD
ENDBRANCH  11  12
BRANCH  11  14
ATOM     14  CB  ASP A   1       8.580  53.426  14.851  0.00  0.00    +0.140 C 
BRANCH  14  15
ATOM     15  CG  ASP A   1       7.695  52.329  14.293  0.00  0.00    +0.367 C 
ATOM     16  OD2 ASP A   1       7.957  51.165  14.621  0.00  0.00    -0.246 OA
ATOM     17  OD1 ASP A   1       6.739  52.639  13.534  0.00  0.00    -0.246 OA
ENDBRANCH  14  15
ENDBRANCH  11  14
ENDBRANCH   7  11
ENDBRANCH   6   9
BRANCH   6  18
ATOM     18  CB  LYS A   2       4.401  55.492  17.717  0.00  0.00    +0.029 C 
BRANCH  18  19
ATOM     19  CG  LYS A   2       2.875  55.554  17.914  0.00  0.00    +0.000 C 
BRANCH  19  20
ATOM     20  CD  LYS A   2       2.307  54.199  18.386  0.00  0.00    -0.024 C 
BRANCH  20  21
ATOM     21  CE  LYS A   2       0.800  54.065  18.130  0.00  0.00    -0.086 C 
BRANCH  21  22
ATOM     22  NZ  LYS A   2       0.516  53.718  16.696  0.00  0.00    +0.380 N 
ATOM     23  HZ1 LYS A   2      -0.511  53.635  16.558  0.00  0.00    -0.089 HD
ATOM     24  HZ2 LYS A   2       0.973  52.813  16.463  0.00  0.00    -0.089 HD
ATOM     25  HZ3 LYS A   2       0.891  54.466  16.079  0.00  0.00    -0.089 HD
ENDBRANCH  21  22
ENDBRANCH  20  21
ENDBRANCH  19  20
ENDBRANCH  18  19
ENDBRANCH   6  18
ENDBRANCH   2   6
ENDBRANCH   1   4
BRANCH   1  26
ATOM     26  C   THR A   3       1.466  55.565  13.570  0.00  0.00    +0.243 C 
ATOM     27  O   THR A   3       0.939  55.538  14.679  0.00  0.00    -0.273 OA
ATOM     28  N   GLY A   4       0.932  56.204  12.537  0.00  0.00    -0.295 N 
ATOM     29  H   GLY A   4       1.489  56.322  11.667  0.00  0.00    +0.150 HD
BRANCH  28  30
ATOM     30  CA  GLY A   4      -0.420  56.744  12.599  0.00  0.00    +0.176 C 
BRANCH  30  31
ATOM     31  C   GLY A   4      -0.964  56.912  11.198  0.00  0.00    +0.243 C 
ATOM     32  N   SER A   5      -2.283  56.856  11.074  0.00  0.00    -0.295 N 
ATOM     33  H   SER A   5      -2.867  56.585  11.891  0.00  0.00    +0.150 HD
ATOM     34  O   GLY A   4      -0.211  57.075  10.249  0.00  0.00    -0.273 OA
BRANCH  32  35
ATOM     35  CA  SER A   5      -2.916  57.169   9.809  0.00  0.00    +0.178 C 
BRANCH  35  36
ATOM     36  C   SER A   5      -4.302  57.719  10.073  0.00  0.00    +0.243 C 
ATOM     37  O   SER A   5      -4.841  57.561  11.172  0.00  0.00    -0.273 OA
ATOM     38  N   GLY A   6      -4.866  58.381   9.076  0.00  0.00    -0.296 N 
ATOM     39  H   GLY A   6      -4.383  58.442   8.157  0.00  0.00    +0.150 HD
BRANCH  38  40
ATOM     40  CA  GLY A   6      -6.151  59.021   9.256  0.00  0.00    +0.163 C 
BRANCH  40  41
ATOM     41  C   GLY A   6      -6.730  59.424   7.925  0.00  0.00    +0.229 C 
ATOM     42  O   GLY A   6      -6.266  58.976   6.866  0.00  0.00    -0.286 OA
ENDBRANCH  40  41
ENDBRANCH  38  40
ENDBRANCH  35  36
BRANCH  35  43
ATOM     43  CB  SER A   5      -2.954  55.956   8.878  0.00  0.00    +0.166 C 
BRANCH  43  44
ATOM     44  OG  SER A   5      -3.889  55.007   9.325  0.00  0.00    -0.380 OA
ATOM     45  H   SER A   5      -4.789  55.418   9.348  0.00  0.00    +0.211 HD
ENDBRANCH  43  44
ENDBRANCH  35  43
ENDBRANCH  32  35
ENDBRANCH  30  31
ENDBRANCH  28  30
ENDBRANCH   1  26
BRANCH   1  46
ATOM     46  CB  THR A   3       2.431  53.622  12.443  0.00  0.00    +0.137 C 
ATOM     47  CG2 THR A   3       3.710  52.890  11.963  0.00  0.00    +0.034 C 
BRANCH  46  48
ATOM     48  OG1 THR A   3       1.611  52.740  13.226  0.00  0.00    -0.382 OA
ATOM     49  HG1 THR A   3       0.785  53.213  13.497  0.00  0.00    +0.210 HD
ENDBRANCH  46  48
ENDBRANCH   1  46
TORSDOF 23
REMARK  Name = ../refined-set-2016/3g2z/3g2z_pocket.pdb
REMARK  140 active torsions:
REMARK  status: ('A' for Active; 'I' for Inactive)
REMARK    1  A    between atoms: _1  and  _3
REMARK    2  A    between atoms: _3  and  _4
REMARK    3  A    between atoms: _3  and  _6
REMARK    4  A    between atoms: _6  and  _7
REMARK    5  A    between atoms: _7  and  _8
REMARK    6  A    between atoms: _10  and  _12
REMARK    7  A    between atoms: _12  and  _13
REMARK    8  A    between atoms: _12  and  _15
REMARK    9  A    between atoms: _17  and  _19
REMARK   10  A    between atoms: _19  and  _20
REMARK   11  A    between atoms: _19  and  _22
REMARK   12  A    between atoms: _22  and  _23
REMARK   13  A    between atoms: _25  and  _27
REMARK   14  A    between atoms: _27  and  _28
REMARK   15  A    between atoms: _27  and  _30
REMARK   16  A    between atoms: _30  and  _31
REMARK   17  A    between atoms: _34  and  _36
REMARK   18  A    between atoms: _36  and  _37
REMARK   19  A    between atoms: _36  and  _39
REMARK   20  A    between atoms: _39  and  _40
REMARK   21  A    between atoms: _40  and  _41
REMARK   22  A    between atoms: _41  and  _42
REMARK   23  A    between atoms: _42  and  _43
REMARK   24  A    between atoms: _47  and  _49
REMARK   25  A    between atoms: _49  and  _50
REMARK   26  A    between atoms: _49  and  _52
REMARK   27  A    between atoms: _55  and  _57
REMARK   28  A    between atoms: _57  and  _58
REMARK   29  A    between atoms: _57  and  _60
REMARK   30  A    between atoms: _60  and  _61
REMARK   31  A    between atoms: _66  and  _68
REMARK   32  A    between atoms: _68  and  _69
REMARK   33  A    between atoms: _68  and  _71
REMARK   34  A    between atoms: _71  and  _72
REMARK   35  A    between atoms: _77  and  _78
REMARK   36  A    between atoms: _80  and  _82
REMARK   37  A    between atoms: _82  and  _83
REMARK   38  A    between atoms: _82  and  _85
REMARK   39  A    between atoms: _85  and  _86
REMARK   40  A    between atoms: _92  and  _93
REMARK   41  A    between atoms: _98  and  _100
REMARK   42  A    between atoms: _100  and  _101
REMARK   43  A    between atoms: _104  and  _106
REMARK   44  A    between atoms: _106  and  _107
REMARK   45  A    between atoms: _106  and  _109
REMARK   46  A    between atoms: _109  and  _110
REMARK   47  A    between atoms: _113  and  _115
REMARK   48  A    between atoms: _115  and  _116
REMARK   49  A    between atoms: _115  and  _118
REMARK   50  A    between atoms: _118  and  _119
REMARK   51  A    between atoms: _124  and  _125
REMARK   52  A    between atoms: _127  and  _129
REMARK   53  A    between atoms: _129  and  _130
REMARK   54  A    between atoms: _129  and  _132
REMARK   55  A    between atoms: _132  and  _133
REMARK   56  A    between atoms: _135  and  _137
REMARK   57  A    between atoms: _137  and  _138
REMARK   58  A    between atoms: _137  and  _140
REMARK   59  A    between atoms: _140  and  _141
REMARK   60  A    between atoms: _144  and  _146
REMARK   61  A    between atoms: _146  and  _147
REMARK   62  A    between atoms: _146  and  _149
REMARK   63  A    between atoms: _149  and  _150
REMARK   64  A    between atoms: _155  and  _157
REMARK   65  A    between atoms: _157  and  _158
REMARK   66  A    between atoms: _157  and  _160
REMARK   67  A    between atoms: _160  and  _161
REMARK   68  A    between atoms: _161  and  _162
REMARK   69  A    between atoms: _166  and  _167
REMARK   70  A    between atoms: _172  and  _174
REMARK   71  A    between atoms: _174  and  _175
REMARK   72  A    between atoms: _174  and  _177
REMARK   73  A    between atoms: _177  and  _178
REMARK   74  A    between atoms: _183  and  _185
REMARK   75  A    between atoms: _185  and  _186
REMARK   76  A    between atoms: _185  and  _188
REMARK   77  A    between atoms: _188  and  _189
REMARK   78  A    between atoms: _194  and  _196
REMARK   79  A    between atoms: _196  and  _197
REMARK   80  A    between atoms: _196  and  _199
REMARK   81  A    between atoms: _199  and  _200
REMARK   82  A    between atoms: _203  and  _205
REMARK   83  A    between atoms: _205  and  _206
REMARK   84  A    between atoms: _208  and  _210
REMARK   85  A    between atoms: _210  and  _211
REMARK   86  A    between atoms: _210  and  _213
REMARK   87  A    between atoms: _213  and  _214
REMARK   88  A    between atoms: _216  and  _218
REMARK   89  A    between atoms: _218  and  _219
REMARK   90  A    between atoms: _218  and  _221
REMARK   91  A    between atoms: _221  and  _222
REMARK   92  A    between atoms: _225  and  _227
REMARK   93  A    between atoms: _227  and  _228
REMARK   94  A    between atoms: _227  and  _230
REMARK   95  A    between atoms: _230  and  _231
REMARK   96  A    between atoms: _231  and  _232
REMARK   97  A    between atoms: _232  and  _233
REMARK   98  A    between atoms: _233  and  _234
REMARK   99  A    between atoms: _238  and  _240
REMARK  100  A    between atoms: _240  and  _241
REMARK  101  A    between atoms: _240  and  _243
REMARK  102  A    between atoms: _243  and  _244
REMARK  103  A    between atoms: _247  and  _249
REMARK  104  A    between atoms: _249  and  _250
REMARK  105  A    between atoms: _252  and  _254
REMARK  106  A    between atoms: _254  and  _255
REMARK  107  A    between atoms: _254  and  _257
REMARK  108  A    between atoms: _257  and  _258
REMARK  109  A    between atoms: _260  and  _262
REMARK  110  A    between atoms: _262  and  _263
REMARK  111  A    between atoms: _265  and  _267
REMARK  112  A    between atoms: _267  and  _268
REMARK  113  A    between atoms: _267  and  _270
REMARK  114  A    between atoms: _270  and  _271
REMARK  115  A    between atoms: _274  and  _276
REMARK  116  A    between atoms: _276  and  _277
REMARK  117  A    between atoms: _276  and  _279
REMARK  118  A    between atoms: _279  and  _280
REMARK  119  A    between atoms: _283  and  _285
REMARK  120  A    between atoms: _285  and  _286
REMARK  121  A    between atoms: _285  and  _288
REMARK  122  A    between atoms: _288  and  _289
REMARK  123  A    between atoms: _294  and  _296
REMARK  124  A    between atoms: _296  and  _297
REMARK  125  A    between atoms: _296  and  _299
REMARK  126  A    between atoms: _299  and  _300
REMARK  127  A    between atoms: _303  and  _305
REMARK  128  A    between atoms: _305  and  _306
REMARK  129  A    between atoms: _305  and  _308
REMARK  130  A    between atoms: _308  and  _309
REMARK  131  A    between atoms: _311  and  _313
REMARK  132  A    between atoms: _313  and  _314
REMARK  133  A    between atoms: _313  and  _316
REMARK  134  A    between atoms: _316  and  _317
REMARK  135  A    between atoms: _317  and  _318
REMARK  136  A    between atoms: _318  and  _319
REMARK  137  A    between atoms: _328  and  _330
REMARK  138  A    between atoms: _330  and  _331
REMARK  139  A    between atoms: _330  and  _333
REMARK  140  A    between atoms: _333  and  _334
REMARK                            x       y       z     vdW  Elec       q    Type
REMARK                         _______ _______ _______ _____ _____    ______ ____
ROOT
ATOM      1  C   THR A   2       1.572  59.021   7.690  0.00  0.00    +0.243 C 
ATOM      2  N   ASN A   3       1.753  58.590   8.942  0.00  0.00    -0.297 N 
ATOM      3  H   ASN A   3       1.137  57.834   9.303  0.00  0.00    +0.150 HD
ATOM      4  O   THR A   2       2.330  59.827   7.124  0.00  0.00    -0.273 OA
ENDROOT
BRANCH   2   5
ATOM      5  CA  ASN A   3       2.777  59.135   9.821  0.00  0.00    +0.158 C 
BRANCH   5   6
ATOM      6  C   ASN A   3       3.594  58.053  10.502  0.00  0.00    +0.241 C 
ATOM      7  N   ASP A   4       4.786  58.424  10.951  0.00  0.00    -0.298 N 
ATOM      8  H   ASP A   4       5.149  59.371  10.719  0.00  0.00    +0.150 HD
ATOM      9  O   ASN A   3       3.135  56.918  10.668  0.00  0.00    -0.273 OA
BRANCH   7  10
ATOM     10  CA  ASP A   4       5.596  57.523  11.766  0.00  0.00    +0.148 C 
BRANCH  10  11
ATOM     11  C   ASP A   4       6.577  58.379  12.540  0.00  0.00    +0.227 C 
ATOM     12  O   ASP A   4       7.074  59.368  12.028  0.00  0.00    -0.286 OA
ENDBRANCH  10  11
BRANCH  10  13
ATOM     13  CB  ASP A   4       6.332  56.519  10.878  0.00  0.00    +0.142 C 
BRANCH  13  14
ATOM     14  CG  ASP A   4       6.843  55.314  11.641  0.00  0.00    +0.367 C 
ATOM     15  OD2 ASP A   4       6.411  55.062  12.799  0.00  0.00    -0.246 OA
ATOM     16  OD1 ASP A   4       7.689  54.601  11.070  0.00  0.00    -0.246 OA
ENDBRANCH  13  14
ENDBRANCH  10  13
ENDBRANCH   7  10
ENDBRANCH   5   6
BRANCH   5  17
ATOM     17  CB  ASN A   3       2.130  59.962  10.938  0.00  0.00    +0.114 C 
BRANCH  17  18
ATOM     18  CG  ASN A   3       1.290  61.107  10.425  0.00  0.00    +0.222 C 
ATOM     19  ND2 ASN A   3       0.299  61.507  11.231  0.00  0.00    -0.329 N 
ATOM     20 HD21 ASN A   3       0.138  61.022  12.137  0.00  0.00    +0.145 HD
ATOM     21 HD22 ASN A   3      -0.310  62.302  10.951  0.00  0.00    +0.145 HD
ATOM     22  OD1 ASN A   3       1.527  61.645   9.339  0.00  0.00    -0.275 OA
ENDBRANCH  17  18
ENDBRANCH   5  17
ENDBRANCH   2   5
BRANCH   1  23
ATOM     23  CA  THR A   2       0.322  58.512   6.989  0.00  0.00    +0.176 C 
BRANCH  23  26
ATOM     24  C   THR A   1      -1.844  59.618   6.782  0.00  0.00    +0.241 C 
ATOM     25  O   THR A   1      -2.457  58.623   7.169  0.00  0.00    -0.274 OA
ATOM     26  N   THR A   2      -0.524  59.672   6.697  0.00  0.00    -0.295 N 
ATOM     27  H   THR A   2      -0.074  60.566   6.414  0.00  0.00    +0.150 HD
BRANCH  24  28
ATOM     28  CA  THR A   1      -2.582  60.878   6.336  0.00  0.00    +0.172 C 
BRANCH  28  29
ATOM     29  CB  THR A   1      -3.147  61.694   7.502  0.00  0.00    +0.135 C 
ATOM     30  CG2 THR A   1      -2.028  62.088   8.473  0.00  0.00    +0.034 C 
BRANCH  29  31
ATOM     31  OG1 THR A   1      -3.758  62.882   6.965  0.00  0.00    -0.383 OA
ATOM     32  HG1 THR A   1      -4.485  62.626   6.344  0.00  0.00    +0.210 HD
ENDBRANCH  29  31
ENDBRANCH  28  29
BRANCH  28  33
ATOM     33  N   THR A   1      -3.637  60.508   5.399  0.00  0.00    -0.236 NA
ATOM     34  H   THR A   1      -4.635  60.634   5.662  0.00  0.00    +0.142 HD
ENDBRANCH  28  33
ENDBRANCH  24  28
ENDBRANCH  23  26
BRANCH  23  35
ATOM     35  CB  THR A   2       0.720  57.777   5.700  0.00  0.00    +0.137 C 
ATOM     36  CG2 THR A   2       1.243  56.389   6.016  0.00  0.00    +0.034 C 
BRANCH  35  37
ATOM     37  OG1 THR A   2      -0.405  57.680   4.802  0.00  0.00    -0.382 OA
ATOM     38  HG1 THR A   2      -0.719  58.589   4.569  0.00  0.00    +0.210 HD
ENDBRANCH  35  37
ENDBRANCH  23  35
ENDBRANCH   1  23
TORSDOF 16
REMARK  Name = ../refined-set-2016/3g2z/3g2z_pocket.pdb
REMARK  140 active torsions:
REMARK  status: ('A' for Active; 'I' for Inactive)
REMARK    1  A    between atoms: _1  and  _3
REMARK    2  A    between atoms: _3  and  _4
REMARK    3  A    between atoms: _3  and  _6
REMARK    4  A    between atoms: _6  and  _7
REMARK    5  A    between atoms: _7  and  _8
REMARK    6  A    between atoms: _10  and  _12
REMARK    7  A    between atoms: _12  and  _13
REMARK    8  A    between atoms: _12  and  _15
REMARK    9  A    between atoms: _17  and  _19
REMARK   10  A    between atoms: _19  and  _20
REMARK   11  A    between atoms: _19  and  _22
REMARK   12  A    between atoms: _22  and  _23
REMARK   13  A    between atoms: _25  and  _27
REMARK   14  A    between atoms: _27  and  _28
REMARK   15  A    between atoms: _27  and  _30
REMARK   16  A    between atoms: _30  and  _31
REMARK   17  A    between atoms: _34  and  _36
REMARK   18  A    between atoms: _36  and  _37
REMARK   19  A    between atoms: _36  and  _39
REMARK   20  A    between atoms: _39  and  _40
REMARK   21  A    between atoms: _40  and  _41
REMARK   22  A    between atoms: _41  and  _42
REMARK   23  A    between atoms: _42  and  _43
REMARK   24  A    between atoms: _47  and  _49
REMARK   25  A    between atoms: _49  and  _50
REMARK   26  A    between atoms: _49  and  _52
REMARK   27  A    between atoms: _55  and  _57
REMARK   28  A    between atoms: _57  and  _58
REMARK   29  A    between atoms: _57  and  _60
REMARK   30  A    between atoms: _60  and  _61
REMARK   31  A    between atoms: _66  and  _68
REMARK   32  A    between atoms: _68  and  _69
REMARK   33  A    between atoms: _68  and  _71
REMARK   34  A    between atoms: _71  and  _72
REMARK   35  A    between atoms: _77  and  _78
REMARK   36  A    between atoms: _80  and  _82
REMARK   37  A    between atoms: _82  and  _83
REMARK   38  A    between atoms: _82  and  _85
REMARK   39  A    between atoms: _85  and  _86
REMARK   40  A    between atoms: _92  and  _93
REMARK   41  A    between atoms: _98  and  _100
REMARK   42  A    between atoms: _100  and  _101
REMARK   43  A    between atoms: _104  and  _106
REMARK   44  A    between atoms: _106  and  _107
REMARK   45  A    between atoms: _106  and  _109
REMARK   46  A    between atoms: _109  and  _110
REMARK   47  A    between atoms: _113  and  _115
REMARK   48  A    between atoms: _115  and  _116
REMARK   49  A    between atoms: _115  and  _118
REMARK   50  A    between atoms: _118  and  _119
REMARK   51  A    between atoms: _124  and  _125
REMARK   52  A    between atoms: _127  and  _129
REMARK   53  A    between atoms: _129  and  _130
REMARK   54  A    between atoms: _129  and  _132
REMARK   55  A    between atoms: _132  and  _133
REMARK   56  A    between atoms: _135  and  _137
REMARK   57  A    between atoms: _137  and  _138
REMARK   58  A    between atoms: _137  and  _140
REMARK   59  A    between atoms: _140  and  _141
REMARK   60  A    between atoms: _144  and  _146
REMARK   61  A    between atoms: _146  and  _147
REMARK   62  A    between atoms: _146  and  _149
REMARK   63  A    between atoms: _149  and  _150
REMARK   64  A    between atoms: _155  and  _157
REMARK   65  A    between atoms: _157  and  _158
REMARK   66  A    between atoms: _157  and  _160
REMARK   67  A    between atoms: _160  and  _161
REMARK   68  A    between atoms: _161  and  _162
REMARK   69  A    between atoms: _166  and  _167
REMARK   70  A    between atoms: _172  and  _174
REMARK   71  A    between atoms: _174  and  _175
REMARK   72  A    between atoms: _174  and  _177
REMARK   73  A    between atoms: _177  and  _178
REMARK   74  A    between atoms: _183  and  _185
REMARK   75  A    between atoms: _185  and  _186
REMARK   76  A    between atoms: _185  and  _188
REMARK   77  A    between atoms: _188  and  _189
REMARK   78  A    between atoms: _194  and  _196
REMARK   79  A    between atoms: _196  and  _197
REMARK   80  A    between atoms: _196  and  _199
REMARK   81  A    between atoms: _199  and  _200
REMARK   82  A    between atoms: _203  and  _205
REMARK   83  A    between atoms: _205  and  _206
REMARK   84  A    between atoms: _208  and  _210
REMARK   85  A    between atoms: _210  and  _211
REMARK   86  A    between atoms: _210  and  _213
REMARK   87  A    between atoms: _213  and  _214
REMARK   88  A    between atoms: _216  and  _218
REMARK   89  A    between atoms: _218  and  _219
REMARK   90  A    between atoms: _218  and  _221
REMARK   91  A    between atoms: _221  and  _222
REMARK   92  A    between atoms: _225  and  _227
REMARK   93  A    between atoms: _227  and  _228
REMARK   94  A    between atoms: _227  and  _230
REMARK   95  A    between atoms: _230  and  _231
REMARK   96  A    between atoms: _231  and  _232
REMARK   97  A    between atoms: _232  and  _233
REMARK   98  A    between atoms: _233  and  _234
REMARK   99  A    between atoms: _238  and  _240
REMARK  100  A    between atoms: _240  and  _241
REMARK  101  A    between atoms: _240  and  _243
REMARK  102  A    between atoms: _243  and  _244
REMARK  103  A    between atoms: _247  and  _249
REMARK  104  A    between atoms: _249  and  _250
REMARK  105  A    between atoms: _252  and  _254
REMARK  106  A    between atoms: _254  and  _255
REMARK  107  A    between atoms: _254  and  _257
REMARK  108  A    between atoms: _257  and  _258
REMARK  109  A    between atoms: _260  and  _262
REMARK  110  A    between atoms: _262  and  _263
REMARK  111  A    between atoms: _265  and  _267
REMARK  112  A    between atoms: _267  and  _268
REMARK  113  A    between atoms: _267  and  _270
REMARK  114  A    between atoms: _270  and  _271
REMARK  115  A    between atoms: _274  and  _276
REMARK  116  A    between atoms: _276  and  _277
REMARK  117  A    between atoms: _276  and  _279
REMARK  118  A    between atoms: _279  and  _280
REMARK  119  A    between atoms: _283  and  _285
REMARK  120  A    between atoms: _285  and  _286
REMARK  121  A    between atoms: _285  and  _288
REMARK  122  A    between atoms: _288  and  _289
REMARK  123  A    between atoms: _294  and  _296
REMARK  124  A    between atoms: _296  and  _297
REMARK  125  A    between atoms: _296  and  _299
REMARK  126  A    between atoms: _299  and  _300
REMARK  127  A    between atoms: _303  and  _305
REMARK  128  A    between atoms: _305  and  _306
REMARK  129  A    between atoms: _305  and  _308
REMARK  130  A    between atoms: _308  and  _309
REMARK  131  A    between atoms: _311  and  _313
REMARK  132  A    between atoms: _313  and  _314
REMARK  133  A    between atoms: _313  and  _316
REMARK  134  A    between atoms: _316  and  _317
REMARK  135  A    between atoms: _317  and  _318
REMARK  136  A    between atoms: _318  and  _319
REMARK  137  A    between atoms: _328  and  _330
REMARK  138  A    between atoms: _330  and  _331
REMARK  139  A    between atoms: _330  and  _333
REMARK  140  A    between atoms: _333  and  _334
REMARK                            x       y       z     vdW  Elec       q    Type
REMARK                         _______ _______ _______ _____ _____    ______ ____
ROOT
ATOM      1  CA  SER A   1      -2.222  55.441   2.858  0.00  0.00    +0.163 C 
ENDROOT
BRANCH   1   2
ATOM      2  N   SER A   1      -3.456  55.346   2.064  0.00  0.00    -0.237 NA
ATOM      3  H   SER A   1      -4.131  54.581   2.266  0.00  0.00    +0.142 HD
ENDBRANCH   1   2
BRANCH   1   4
ATOM      4  C   SER A   1      -0.984  55.292   1.983  0.00  0.00    +0.227 C 
ATOM      5  O   SER A   1      -1.006  54.579   0.980  0.00  0.00    -0.287 OA
ENDBRANCH   1   4
BRANCH   1   6
ATOM      6  CB  SER A   1      -2.196  54.366   3.950  0.00  0.00    +0.162 C 
BRANCH   6   7
ATOM      7  OG  SER A   1      -3.252  54.556   4.867  0.00  0.00    -0.380 OA
ATOM      8  H   SER A   1      -3.162  55.445   5.292  0.00  0.00    +0.211 HD
ENDBRANCH   6   7
ENDBRANCH   1   6
TORSDOF 4
REMARK  Name = ../refined-set-2016/3g2z/3g2z_pocket.pdb
REMARK  140 active torsions:
REMARK  status: ('A' for Active; 'I' for Inactive)
REMARK    1  A    between atoms: _1  and  _3
REMARK    2  A    between atoms: _3  and  _4
REMARK    3  A    between atoms: _3  and  _6
REMARK    4  A    between atoms: _6  and  _7
REMARK    5  A    between atoms: _7  and  _8
REMARK    6  A    between atoms: _10  and  _12
REMARK    7  A    between atoms: _12  and  _13
REMARK    8  A    between atoms: _12  and  _15
REMARK    9  A    between atoms: _17  and  _19
REMARK   10  A    between atoms: _19  and  _20
REMARK   11  A    between atoms: _19  and  _22
REMARK   12  A    between atoms: _22  and  _23
REMARK   13  A    between atoms: _25  and  _27
REMARK   14  A    between atoms: _27  and  _28
REMARK   15  A    between atoms: _27  and  _30
REMARK   16  A    between atoms: _30  and  _31
REMARK   17  A    between atoms: _34  and  _36
REMARK   18  A    between atoms: _36  and  _37
REMARK   19  A    between atoms: _36  and  _39
REMARK   20  A    between atoms: _39  and  _40
REMARK   21  A    between atoms: _40  and  _41
REMARK   22  A    between atoms: _41  and  _42
REMARK   23  A    between atoms: _42  and  _43
REMARK   24  A    between atoms: _47  and  _49
REMARK   25  A    between atoms: _49  and  _50
REMARK   26  A    between atoms: _49  and  _52
REMARK   27  A    between atoms: _55  and  _57
REMARK   28  A    between atoms: _57  and  _58
REMARK   29  A    between atoms: _57  and  _60
REMARK   30  A    between atoms: _60  and  _61
REMARK   31  A    between atoms: _66  and  _68
REMARK   32  A    between atoms: _68  and  _69
REMARK   33  A    between atoms: _68  and  _71
REMARK   34  A    between atoms: _71  and  _72
REMARK   35  A    between atoms: _77  and  _78
REMARK   36  A    between atoms: _80  and  _82
REMARK   37  A    between atoms: _82  and  _83
REMARK   38  A    between atoms: _82  and  _85
REMARK   39  A    between atoms: _85  and  _86
REMARK   40  A    between atoms: _92  and  _93
REMARK   41  A    between atoms: _98  and  _100
REMARK   42  A    between atoms: _100  and  _101
REMARK   43  A    between atoms: _104  and  _106
REMARK   44  A    between atoms: _106  and  _107
REMARK   45  A    between atoms: _106  and  _109
REMARK   46  A    between atoms: _109  and  _110
REMARK   47  A    between atoms: _113  and  _115
REMARK   48  A    between atoms: _115  and  _116
REMARK   49  A    between atoms: _115  and  _118
REMARK   50  A    between atoms: _118  and  _119
REMARK   51  A    between atoms: _124  and  _125
REMARK   52  A    between atoms: _127  and  _129
REMARK   53  A    between atoms: _129  and  _130
REMARK   54  A    between atoms: _129  and  _132
REMARK   55  A    between atoms: _132  and  _133
REMARK   56  A    between atoms: _135  and  _137
REMARK   57  A    between atoms: _137  and  _138
REMARK   58  A    between atoms: _137  and  _140
REMARK   59  A    between atoms: _140  and  _141
REMARK   60  A    between atoms: _144  and  _146
REMARK   61  A    between atoms: _146  and  _147
REMARK   62  A    between atoms: _146  and  _149
REMARK   63  A    between atoms: _149  and  _150
REMARK   64  A    between atoms: _155  and  _157
REMARK   65  A    between atoms: _157  and  _158
REMARK   66  A    between atoms: _157  and  _160
REMARK   67  A    between atoms: _160  and  _161
REMARK   68  A    between atoms: _161  and  _162
REMARK   69  A    between atoms: _166  and  _167
REMARK   70  A    between atoms: _172  and  _174
REMARK   71  A    between atoms: _174  and  _175
REMARK   72  A    between atoms: _174  and  _177
REMARK   73  A    between atoms: _177  and  _178
REMARK   74  A    between atoms: _183  and  _185
REMARK   75  A    between atoms: _185  and  _186
REMARK   76  A    between atoms: _185  and  _188
REMARK   77  A    between atoms: _188  and  _189
REMARK   78  A    between atoms: _194  and  _196
REMARK   79  A    between atoms: _196  and  _197
REMARK   80  A    between atoms: _196  and  _199
REMARK   81  A    between atoms: _199  and  _200
REMARK   82  A    between atoms: _203  and  _205
REMARK   83  A    between atoms: _205  and  _206
REMARK   84  A    between atoms: _208  and  _210
REMARK   85  A    between atoms: _210  and  _211
REMARK   86  A    between atoms: _210  and  _213
REMARK   87  A    between atoms: _213  and  _214
REMARK   88  A    between atoms: _216  and  _218
REMARK   89  A    between atoms: _218  and  _219
REMARK   90  A    between atoms: _218  and  _221
REMARK   91  A    between atoms: _221  and  _222
REMARK   92  A    between atoms: _225  and  _227
REMARK   93  A    between atoms: _227  and  _228
REMARK   94  A    between atoms: _227  and  _230
REMARK   95  A    between atoms: _230  and  _231
REMARK   96  A    between atoms: _231  and  _232
REMARK   97  A    between atoms: _232  and  _233
REMARK   98  A    between atoms: _233  and  _234
REMARK   99  A    between atoms: _238  and  _240
REMARK  100  A    between atoms: _240  and  _241
REMARK  101  A    between atoms: _240  and  _243
REMARK  102  A    between atoms: _243  and  _244
REMARK  103  A    between atoms: _247  and  _249
REMARK  104  A    between atoms: _249  and  _250
REMARK  105  A    between atoms: _252  and  _254
REMARK  106  A    between atoms: _254  and  _255
REMARK  107  A    between atoms: _254  and  _257
REMARK  108  A    between atoms: _257  and  _258
REMARK  109  A    between atoms: _260  and  _262
REMARK  110  A    between atoms: _262  and  _263
REMARK  111  A    between atoms: _265  and  _267
REMARK  112  A    between atoms: _267  and  _268
REMARK  113  A    between atoms: _267  and  _270
REMARK  114  A    between atoms: _270  and  _271
REMARK  115  A    between atoms: _274  and  _276
REMARK  116  A    between atoms: _276  and  _277
REMARK  117  A    between atoms: _276  and  _279
REMARK  118  A    between atoms: _279  and  _280
REMARK  119  A    between atoms: _283  and  _285
REMARK  120  A    between atoms: _285  and  _286
REMARK  121  A    between atoms: _285  and  _288
REMARK  122  A    between atoms: _288  and  _289
REMARK  123  A    between atoms: _294  and  _296
REMARK  124  A    between atoms: _296  and  _297
REMARK  125  A    between atoms: _296  and  _299
REMARK  126  A    between atoms: _299  and  _300
REMARK  127  A    between atoms: _303  and  _305
REMARK  128  A    between atoms: _305  and  _306
REMARK  129  A    between atoms: _305  and  _308
REMARK  130  A    between atoms: _308  and  _309
REMARK  131  A    between atoms: _311  and  _313
REMARK  132  A    between atoms: _313  and  _314
REMARK  133  A    between atoms: _313  and  _316
REMARK  134  A    between atoms: _316  and  _317
REMARK  135  A    between atoms: _317  and  _318
REMARK  136  A    between atoms: _318  and  _319
REMARK  137  A    between atoms: _328  and  _330
REMARK  138  A    between atoms: _330  and  _331
REMARK  139  A    between atoms: _330  and  _333
REMARK  140  A    between atoms: _333  and  _334
REMARK                            x       y       z     vdW  Elec       q    Type
REMARK                         _______ _______ _______ _____ _____    ______ ____
ROOT
ATOM      1  NE  ARG A   1       1.822  50.430   5.595  0.00  0.00    -0.265 N 
ATOM      2  CZ  ARG A   1       1.503  49.208   6.016  0.00  0.00    +0.342 C 
ATOM      3  NH2 ARG A   1       1.317  48.974   7.316  0.00  0.00    -0.292 N 
ATOM      4 HH21 ARG A   1       1.421  49.747   8.004  0.00  0.00    +0.255 HD
ATOM      5 HH22 ARG A   1       1.068  48.018   7.642  0.00  0.00    +0.255 HD
ATOM      6  NH1 ARG A   1       1.355  48.220   5.133  0.00  0.00    -0.292 N 
ATOM      7 HH11 ARG A   1       1.106  47.264   5.459  0.00  0.00    +0.255 HD
ATOM      8 HH12 ARG A   1       1.489  48.405   4.118  0.00  0.00    +0.255 HD
ATOM      9  HE  ARG A   1       1.929  50.582   4.572  0.00  0.00    +0.259 HD
ENDROOT
BRANCH   1  10
ATOM     10  CD  ARG A   1       2.030  51.569   6.484  0.00  0.00    +0.174 C 
BRANCH  10  11
ATOM     11  CG  ARG A   1       2.271  52.868   5.726  0.00  0.00    +0.045 C 
BRANCH  11  12
ATOM     12  CB  ARG A   1       3.484  52.822   4.798  0.00  0.00    +0.029 C 
BRANCH  12  13
ATOM     13  CA  ARG A   1       3.717  54.141   4.057  0.00  0.00    +0.133 C 
BRANCH  13  14
ATOM     14  N   ARG A   1       2.585  54.450   3.172  0.00  0.00    -0.239 NA
ATOM     15  H   ARG A   1       1.826  53.753   3.033  0.00  0.00    +0.142 HD
ENDBRANCH  13  14
BRANCH  13  16
ATOM     16  C   ARG A   1       5.046  54.117   3.308  0.00  0.00    +0.224 C 
ATOM     17  O   ARG A   1       6.110  54.412   3.882  0.00  0.00    -0.287 OA
ENDBRANCH  13  16
ENDBRANCH  12  13
ENDBRANCH  11  12
ENDBRANCH  10  11
ENDBRANCH   1  10
TORSDOF 6
REMARK  Name = ../refined-set-2016/3g2z/3g2z_pocket.pdb
REMARK  140 active torsions:
REMARK  status: ('A' for Active; 'I' for Inactive)
REMARK    1  A    between atoms: _1  and  _3
REMARK    2  A    between atoms: _3  and  _4
REMARK    3  A    between atoms: _3  and  _6
REMARK    4  A    between atoms: _6  and  _7
REMARK    5  A    between atoms: _7  and  _8
REMARK    6  A    between atoms: _10  and  _12
REMARK    7  A    between atoms: _12  and  _13
REMARK    8  A    between atoms: _12  and  _15
REMARK    9  A    between atoms: _17  and  _19
REMARK   10  A    between atoms: _19  and  _20
REMARK   11  A    between atoms: _19  and  _22
REMARK   12  A    between atoms: _22  and  _23
REMARK   13  A    between atoms: _25  and  _27
REMARK   14  A    between atoms: _27  and  _28
REMARK   15  A    between atoms: _27  and  _30
REMARK   16  A    between atoms: _30  and  _31
REMARK   17  A    between atoms: _34  and  _36
REMARK   18  A    between atoms: _36  and  _37
REMARK   19  A    between atoms: _36  and  _39
REMARK   20  A    between atoms: _39  and  _40
REMARK   21  A    between atoms: _40  and  _41
REMARK   22  A    between atoms: _41  and  _42
REMARK   23  A    between atoms: _42  and  _43
REMARK   24  A    between atoms: _47  and  _49
REMARK   25  A    between atoms: _49  and  _50
REMARK   26  A    between atoms: _49  and  _52
REMARK   27  A    between atoms: _55  and  _57
REMARK   28  A    between atoms: _57  and  _58
REMARK   29  A    between atoms: _57  and  _60
REMARK   30  A    between atoms: _60  and  _61
REMARK   31  A    between atoms: _66  and  _68
REMARK   32  A    between atoms: _68  and  _69
REMARK   33  A    between atoms: _68  and  _71
REMARK   34  A    between atoms: _71  and  _72
REMARK   35  A    between atoms: _77  and  _78
REMARK   36  A    between atoms: _80  and  _82
REMARK   37  A    between atoms: _82  and  _83
REMARK   38  A    between atoms: _82  and  _85
REMARK   39  A    between atoms: _85  and  _86
REMARK   40  A    between atoms: _92  and  _93
REMARK   41  A    between atoms: _98  and  _100
REMARK   42  A    between atoms: _100  and  _101
REMARK   43  A    between atoms: _104  and  _106
REMARK   44  A    between atoms: _106  and  _107
REMARK   45  A    between atoms: _106  and  _109
REMARK   46  A    between atoms: _109  and  _110
REMARK   47  A    between atoms: _113  and  _115
REMARK   48  A    between atoms: _115  and  _116
REMARK   49  A    between atoms: _115  and  _118
REMARK   50  A    between atoms: _118  and  _119
REMARK   51  A    between atoms: _124  and  _125
REMARK   52  A    between atoms: _127  and  _129
REMARK   53  A    between atoms: _129  and  _130
REMARK   54  A    between atoms: _129  and  _132
REMARK   55  A    between atoms: _132  and  _133
REMARK   56  A    between atoms: _135  and  _137
REMARK   57  A    between atoms: _137  and  _138
REMARK   58  A    between atoms: _137  and  _140
REMARK   59  A    between atoms: _140  and  _141
REMARK   60  A    between atoms: _144  and  _146
REMARK   61  A    between atoms: _146  and  _147
REMARK   62  A    between atoms: _146  and  _149
REMARK   63  A    between atoms: _149  and  _150
REMARK   64  A    between atoms: _155  and  _157
REMARK   65  A    between atoms: _157  and  _158
REMARK   66  A    between atoms: _157  and  _160
REMARK   67  A    between atoms: _160  and  _161
REMARK   68  A    between atoms: _161  and  _162
REMARK   69  A    between atoms: _166  and  _167
REMARK   70  A    between atoms: _172  and  _174
REMARK   71  A    between atoms: _174  and  _175
REMARK   72  A    between atoms: _174  and  _177
REMARK   73  A    between atoms: _177  and  _178
REMARK   74  A    between atoms: _183  and  _185
REMARK   75  A    between atoms: _185  and  _186
REMARK   76  A    between atoms: _185  and  _188
REMARK   77  A    between atoms: _188  and  _189
REMARK   78  A    between atoms: _194  and  _196
REMARK   79  A    between atoms: _196  and  _197
REMARK   80  A    between atoms: _196  and  _199
REMARK   81  A    between atoms: _199  and  _200
REMARK   82  A    between atoms: _203  and  _205
REMARK   83  A    between atoms: _205  and  _206
REMARK   84  A    between atoms: _208  and  _210
REMARK   85  A    between atoms: _210  and  _211
REMARK   86  A    between atoms: _210  and  _213
REMARK   87  A    between atoms: _213  and  _214
REMARK   88  A    between atoms: _216  and  _218
REMARK   89  A    between atoms: _218  and  _219
REMARK   90  A    between atoms: _218  and  _221
REMARK   91  A    between atoms: _221  and  _222
REMARK   92  A    between atoms: _225  and  _227
REMARK   93  A    between atoms: _227  and  _228
REMARK   94  A    between atoms: _227  and  _230
REMARK   95  A    between atoms: _230  and  _231
REMARK   96  A    between atoms: _231  and  _232
REMARK   97  A    between atoms: _232  and  _233
REMARK   98  A    between atoms: _233  and  _234
REMARK   99  A    between atoms: _238  and  _240
REMARK  100  A    between atoms: _240  and  _241
REMARK  101  A    between atoms: _240  and  _243
REMARK  102  A    between atoms: _243  and  _244
REMARK  103  A    between atoms: _247  and  _249
REMARK  104  A    between atoms: _249  and  _250
REMARK  105  A    between atoms: _252  and  _254
REMARK  106  A    between atoms: _254  and  _255
REMARK  107  A    between atoms: _254  and  _257
REMARK  108  A    between atoms: _257  and  _258
REMARK  109  A    between atoms: _260  and  _262
REMARK  110  A    between atoms: _262  and  _263
REMARK  111  A    between atoms: _265  and  _267
REMARK  112  A    between atoms: _267  and  _268
REMARK  113  A    between atoms: _267  and  _270
REMARK  114  A    between atoms: _270  and  _271
REMARK  115  A    between atoms: _274  and  _276
REMARK  116  A    between atoms: _276  and  _277
REMARK  117  A    between atoms: _276  and  _279
REMARK  118  A    between atoms: _279  and  _280
REMARK  119  A    between atoms: _283  and  _285
REMARK  120  A    between atoms: _285  and  _286
REMARK  121  A    between atoms: _285  and  _288
REMARK  122  A    between atoms: _288  and  _289
REMARK  123  A    between atoms: _294  and  _296
REMARK  124  A    between atoms: _296  and  _297
REMARK  125  A    between atoms: _296  and  _299
REMARK  126  A    between atoms: _299  and  _300
REMARK  127  A    between atoms: _303  and  _305
REMARK  128  A    between atoms: _305  and  _306
REMARK  129  A    between atoms: _305  and  _308
REMARK  130  A    between atoms: _308  and  _309
REMARK  131  A    between atoms: _311  and  _313
REMARK  132  A    between atoms: _313  and  _314
REMARK  133  A    between atoms: _313  and  _316
REMARK  134  A    between atoms: _316  and  _317
REMARK  135  A    between atoms: _317  and  _318
REMARK  136  A    between atoms: _318  and  _319
REMARK  137  A    between atoms: _328  and  _330
REMARK  138  A    between atoms: _330  and  _331
REMARK  139  A    between atoms: _330  and  _333
REMARK  140  A    between atoms: _333  and  _334
REMARK                            x       y       z     vdW  Elec       q    Type
REMARK                         _______ _______ _______ _____ _____    ______ ____
ROOT
ATOM      1  CA  LEU A   1       7.703  57.446   4.779  0.00  0.00    +0.133 C 
ENDROOT
BRANCH   1   2
ATOM      2  N   LEU A   1       6.958  57.290   3.536  0.00  0.00    -0.239 NA
ATOM      3  H   LEU A   1       6.062  56.762   3.528  0.00  0.00    +0.142 HD
ENDBRANCH   1   2
BRANCH   1   4
ATOM      4  C   LEU A   1       9.001  56.644   4.722  0.00  0.00    +0.224 C 
ATOM      5  O   LEU A   1      10.053  57.118   5.180  0.00  0.00    -0.287 OA
ENDBRANCH   1   4
BRANCH   1   6
ATOM      6  CB  LEU A   1       6.859  57.023   5.987  0.00  0.00    +0.025 C 
BRANCH   6   7
ATOM      7  CG  LEU A   1       5.460  57.640   6.067  0.00  0.00    +0.002 C 
ATOM      8  CD2 LEU A   1       4.803  57.204   7.356  0.00  0.00    +0.000 C 
ATOM      9  CD1 LEU A   1       5.492  59.170   5.991  0.00  0.00    +0.000 C 
ENDBRANCH   6   7
ENDBRANCH   1   6
TORSDOF 4
REMARK  Name = ../refined-set-2016/3g2z/3g2z_pocket.pdb
REMARK  140 active torsions:
REMARK  status: ('A' for Active; 'I' for Inactive)
REMARK    1  A    between atoms: _1  and  _3
REMARK    2  A    between atoms: _3  and  _4
REMARK    3  A    between atoms: _3  and  _6
REMARK    4  A    between atoms: _6  and  _7
REMARK    5  A    between atoms: _7  and  _8
REMARK    6  A    between atoms: _10  and  _12
REMARK    7  A    between atoms: _12  and  _13
REMARK    8  A    between atoms: _12  and  _15
REMARK    9  A    between atoms: _17  and  _19
REMARK   10  A    between atoms: _19  and  _20
REMARK   11  A    between atoms: _19  and  _22
REMARK   12  A    between atoms: _22  and  _23
REMARK   13  A    between atoms: _25  and  _27
REMARK   14  A    between atoms: _27  and  _28
REMARK   15  A    between atoms: _27  and  _30
REMARK   16  A    between atoms: _30  and  _31
REMARK   17  A    between atoms: _34  and  _36
REMARK   18  A    between atoms: _36  and  _37
REMARK   19  A    between atoms: _36  and  _39
REMARK   20  A    between atoms: _39  and  _40
REMARK   21  A    between atoms: _40  and  _41
REMARK   22  A    between atoms: _41  and  _42
REMARK   23  A    between atoms: _42  and  _43
REMARK   24  A    between atoms: _47  and  _49
REMARK   25  A    between atoms: _49  and  _50
REMARK   26  A    between atoms: _49  and  _52
REMARK   27  A    between atoms: _55  and  _57
REMARK   28  A    between atoms: _57  and  _58
REMARK   29  A    between atoms: _57  and  _60
REMARK   30  A    between atoms: _60  and  _61
REMARK   31  A    between atoms: _66  and  _68
REMARK   32  A    between atoms: _68  and  _69
REMARK   33  A    between atoms: _68  and  _71
REMARK   34  A    between atoms: _71  and  _72
REMARK   35  A    between atoms: _77  and  _78
REMARK   36  A    between atoms: _80  and  _82
REMARK   37  A    between atoms: _82  and  _83
REMARK   38  A    between atoms: _82  and  _85
REMARK   39  A    between atoms: _85  and  _86
REMARK   40  A    between atoms: _92  and  _93
REMARK   41  A    between atoms: _98  and  _100
REMARK   42  A    between atoms: _100  and  _101
REMARK   43  A    between atoms: _104  and  _106
REMARK   44  A    between atoms: _106  and  _107
REMARK   45  A    between atoms: _106  and  _109
REMARK   46  A    between atoms: _109  and  _110
REMARK   47  A    between atoms: _113  and  _115
REMARK   48  A    between atoms: _115  and  _116
REMARK   49  A    between atoms: _115  and  _118
REMARK   50  A    between atoms: _118  and  _119
REMARK   51  A    between atoms: _124  and  _125
REMARK   52  A    between atoms: _127  and  _129
REMARK   53  A    between atoms: _129  and  _130
REMARK   54  A    between atoms: _129  and  _132
REMARK   55  A    between atoms: _132  and  _133
REMARK   56  A    between atoms: _135  and  _137
REMARK   57  A    between atoms: _137  and  _138
REMARK   58  A    between atoms: _137  and  _140
REMARK   59  A    between atoms: _140  and  _141
REMARK   60  A    between atoms: _144  and  _146
REMARK   61  A    between atoms: _146  and  _147
REMARK   62  A    between atoms: _146  and  _149
REMARK   63  A    between atoms: _149  and  _150
REMARK   64  A    between atoms: _155  and  _157
REMARK   65  A    between atoms: _157  and  _158
REMARK   66  A    between atoms: _157  and  _160
REMARK   67  A    between atoms: _160  and  _161
REMARK   68  A    between atoms: _161  and  _162
REMARK   69  A    between atoms: _166  and  _167
REMARK   70  A    between atoms: _172  and  _174
REMARK   71  A    between atoms: _174  and  _175
REMARK   72  A    between atoms: _174  and  _177
REMARK   73  A    between atoms: _177  and  _178
REMARK   74  A    between atoms: _183  and  _185
REMARK   75  A    between atoms: _185  and  _186
REMARK   76  A    between atoms: _185  and  _188
REMARK   77  A    between atoms: _188  and  _189
REMARK   78  A    between atoms: _194  and  _196
REMARK   79  A    between atoms: _196  and  _197
REMARK   80  A    between atoms: _196  and  _199
REMARK   81  A    between atoms: _199  and  _200
REMARK   82  A    between atoms: _203  and  _205
REMARK   83  A    between atoms: _205  and  _206
REMARK   84  A    between atoms: _208  and  _210
REMARK   85  A    between atoms: _210  and  _211
REMARK   86  A    between atoms: _210  and  _213
REMARK   87  A    between atoms: _213  and  _214
REMARK   88  A    between atoms: _216  and  _218
REMARK   89  A    between atoms: _218  and  _219
REMARK   90  A    between atoms: _218  and  _221
REMARK   91  A    between atoms: _221  and  _222
REMARK   92  A    between atoms: _225  and  _227
REMARK   93  A    between atoms: _227  and  _228
REMARK   94  A    between atoms: _227  and  _230
REMARK   95  A    between atoms: _230  and  _231
REMARK   96  A    between atoms: _231  and  _232
REMARK   97  A    between atoms: _232  and  _233
REMARK   98  A    between atoms: _233  and  _234
REMARK   99  A    between atoms: _238  and  _240
REMARK  100  A    between atoms: _240  and  _241
REMARK  101  A    between atoms: _240  and  _243
REMARK  102  A    between atoms: _243  and  _244
REMARK  103  A    between atoms: _247  and  _249
REMARK  104  A    between atoms: _249  and  _250
REMARK  105  A    between atoms: _252  and  _254
REMARK  106  A    between atoms: _254  and  _255
REMARK  107  A    between atoms: _254  and  _257
REMARK  108  A    between atoms: _257  and  _258
REMARK  109  A    between atoms: _260  and  _262
REMARK  110  A    between atoms: _262  and  _263
REMARK  111  A    between atoms: _265  and  _267
REMARK  112  A    between atoms: _267  and  _268
REMARK  113  A    between atoms: _267  and  _270
REMARK  114  A    between atoms: _270  and  _271
REMARK  115  A    between atoms: _274  and  _276
REMARK  116  A    between atoms: _276  and  _277
REMARK  117  A    between atoms: _276  and  _279
REMARK  118  A    between atoms: _279  and  _280
REMARK  119  A    between atoms: _283  and  _285
REMARK  120  A    between atoms: _285  and  _286
REMARK  121  A    between atoms: _285  and  _288
REMARK  122  A    between atoms: _288  and  _289
REMARK  123  A    between atoms: _294  and  _296
REMARK  124  A    between atoms: _296  and  _297
REMARK  125  A    between atoms: _296  and  _299
REMARK  126  A    between atoms: _299  and  _300
REMARK  127  A    between atoms: _303  and  _305
REMARK  128  A    between atoms: _305  and  _306
REMARK  129  A    between atoms: _305  and  _308
REMARK  130  A    between atoms: _308  and  _309
REMARK  131  A    between atoms: _311  and  _313
REMARK  132  A    between atoms: _313  and  _314
REMARK  133  A    between atoms: _313  and  _316
REMARK  134  A    between atoms: _316  and  _317
REMARK  135  A    between atoms: _317  and  _318
REMARK  136  A    between atoms: _318  and  _319
REMARK  137  A    between atoms: _328  and  _330
REMARK  138  A    between atoms: _330  and  _331
REMARK  139  A    between atoms: _330  and  _333
REMARK  140  A    between atoms: _333  and  _334
REMARK                            x       y       z     vdW  Elec       q    Type
REMARK                         _______ _______ _______ _____ _____    ______ ____
ROOT
ATOM      1  O   HOH     1      -4.144  57.134   5.375  0.00  0.00    +0.000 OA
ENDROOT
TORSDOF 0
REMARK  Name = ../refined-set-2016/3g2z/3g2z_pocket.pdb
REMARK  140 active torsions:
REMARK  status: ('A' for Active; 'I' for Inactive)
REMARK    1  A    between atoms: _1  and  _3
REMARK    2  A    between atoms: _3  and  _4
REMARK    3  A    between atoms: _3  and  _6
REMARK    4  A    between atoms: _6  and  _7
REMARK    5  A    between atoms: _7  and  _8
REMARK    6  A    between atoms: _10  and  _12
REMARK    7  A    between atoms: _12  and  _13
REMARK    8  A    between atoms: _12  and  _15
REMARK    9  A    between atoms: _17  and  _19
REMARK   10  A    between atoms: _19  and  _20
REMARK   11  A    between atoms: _19  and  _22
REMARK   12  A    between atoms: _22  and  _23
REMARK   13  A    between atoms: _25  and  _27
REMARK   14  A    between atoms: _27  and  _28
REMARK   15  A    between atoms: _27  and  _30
REMARK   16  A    between atoms: _30  and  _31
REMARK   17  A    between atoms: _34  and  _36
REMARK   18  A    between atoms: _36  and  _37
REMARK   19  A    between atoms: _36  and  _39
REMARK   20  A    between atoms: _39  and  _40
REMARK   21  A    between atoms: _40  and  _41
REMARK   22  A    between atoms: _41  and  _42
REMARK   23  A    between atoms: _42  and  _43
REMARK   24  A    between atoms: _47  and  _49
REMARK   25  A    between atoms: _49  and  _50
REMARK   26  A    between atoms: _49  and  _52
REMARK   27  A    between atoms: _55  and  _57
REMARK   28  A    between atoms: _57  and  _58
REMARK   29  A    between atoms: _57  and  _60
REMARK   30  A    between atoms: _60  and  _61
REMARK   31  A    between atoms: _66  and  _68
REMARK   32  A    between atoms: _68  and  _69
REMARK   33  A    between atoms: _68  and  _71
REMARK   34  A    between atoms: _71  and  _72
REMARK   35  A    between atoms: _77  and  _78
REMARK   36  A    between atoms: _80  and  _82
REMARK   37  A    between atoms: _82  and  _83
REMARK   38  A    between atoms: _82  and  _85
REMARK   39  A    between atoms: _85  and  _86
REMARK   40  A    between atoms: _92  and  _93
REMARK   41  A    between atoms: _98  and  _100
REMARK   42  A    between atoms: _100  and  _101
REMARK   43  A    between atoms: _104  and  _106
REMARK   44  A    between atoms: _106  and  _107
REMARK   45  A    between atoms: _106  and  _109
REMARK   46  A    between atoms: _109  and  _110
REMARK   47  A    between atoms: _113  and  _115
REMARK   48  A    between atoms: _115  and  _116
REMARK   49  A    between atoms: _115  and  _118
REMARK   50  A    between atoms: _118  and  _119
REMARK   51  A    between atoms: _124  and  _125
REMARK   52  A    between atoms: _127  and  _129
REMARK   53  A    between atoms: _129  and  _130
REMARK   54  A    between atoms: _129  and  _132
REMARK   55  A    between atoms: _132  and  _133
REMARK   56  A    between atoms: _135  and  _137
REMARK   57  A    between atoms: _137  and  _138
REMARK   58  A    between atoms: _137  and  _140
REMARK   59  A    between atoms: _140  and  _141
REMARK   60  A    between atoms: _144  and  _146
REMARK   61  A    between atoms: _146  and  _147
REMARK   62  A    between atoms: _146  and  _149
REMARK   63  A    between atoms: _149  and  _150
REMARK   64  A    between atoms: _155  and  _157
REMARK   65  A    between atoms: _157  and  _158
REMARK   66  A    between atoms: _157  and  _160
REMARK   67  A    between atoms: _160  and  _161
REMARK   68  A    between atoms: _161  and  _162
REMARK   69  A    between atoms: _166  and  _167
REMARK   70  A    between atoms: _172  and  _174
REMARK   71  A    between atoms: _174  and  _175
REMARK   72  A    between atoms: _174  and  _177
REMARK   73  A    between atoms: _177  and  _178
REMARK   74  A    between atoms: _183  and  _185
REMARK   75  A    between atoms: _185  and  _186
REMARK   76  A    between atoms: _185  and  _188
REMARK   77  A    between atoms: _188  and  _189
REMARK   78  A    between atoms: _194  and  _196
REMARK   79  A    between atoms: _196  and  _197
REMARK   80  A    between atoms: _196  and  _199
REMARK   81  A    between atoms: _199  and  _200
REMARK   82  A    between atoms: _203  and  _205
REMARK   83  A    between atoms: _205  and  _206
REMARK   84  A    between atoms: _208  and  _210
REMARK   85  A    between atoms: _210  and  _211
REMARK   86  A    between atoms: _210  and  _213
REMARK   87  A    between atoms: _213  and  _214
REMARK   88  A    between atoms: _216  and  _218
REMARK   89  A    between atoms: _218  and  _219
REMARK   90  A    between atoms: _218  and  _221
REMARK   91  A    between atoms: _221  and  _222
REMARK   92  A    between atoms: _225  and  _227
REMARK   93  A    between atoms: _227  and  _228
REMARK   94  A    between atoms: _227  and  _230
REMARK   95  A    between atoms: _230  and  _231
REMARK   96  A    between atoms: _231  and  _232
REMARK   97  A    between atoms: _232  and  _233
REMARK   98  A    between atoms: _233  and  _234
REMARK   99  A    between atoms: _238  and  _240
REMARK  100  A    between atoms: _240  and  _241
REMARK  101  A    between atoms: _240  and  _243
REMARK  102  A    between atoms: _243  and  _244
REMARK  103  A    between atoms: _247  and  _249
REMARK  104  A    between atoms: _249  and  _250
REMARK  105  A    between atoms: _252  and  _254
REMARK  106  A    between atoms: _254  and  _255
REMARK  107  A    between atoms: _254  and  _257
REMARK  108  A    between atoms: _257  and  _258
REMARK  109  A    between atoms: _260  and  _262
REMARK  110  A    between atoms: _262  and  _263
REMARK  111  A    between atoms: _265  and  _267
REMARK  112  A    between atoms: _267  and  _268
REMARK  113  A    between atoms: _267  and  _270
REMARK  114  A    between atoms: _270  and  _271
REMARK  115  A    between atoms: _274  and  _276
REMARK  116  A    between atoms: _276  and  _277
REMARK  117  A    between atoms: _276  and  _279
REMARK  118  A    between atoms: _279  and  _280
REMARK  119  A    between atoms: _283  and  _285
REMARK  120  A    between atoms: _285  and  _286
REMARK  121  A    between atoms: _285  and  _288
REMARK  122  A    between atoms: _288  and  _289
REMARK  123  A    between atoms: _294  and  _296
REMARK  124  A    between atoms: _296  and  _297
REMARK  125  A    between atoms: _296  and  _299
REMARK  126  A    between atoms: _299  and  _300
REMARK  127  A    between atoms: _303  and  _305
REMARK  128  A    between atoms: _305  and  _306
REMARK  129  A    between atoms: _305  and  _308
REMARK  130  A    between atoms: _308  and  _309
REMARK  131  A    between atoms: _311  and  _313
REMARK  132  A    between atoms: _313  and  _314
REMARK  133  A    between atoms: _313  and  _316
REMARK  134  A    between atoms: _316  and  _317
REMARK  135  A    between atoms: _317  and  _318
REMARK  136  A    between atoms: _318  and  _319
REMARK  137  A    between atoms: _328  and  _330
REMARK  138  A    between atoms: _330  and  _331
REMARK  139  A    between atoms: _330  and  _333
REMARK  140  A    between atoms: _333  and  _334
REMARK                            x       y       z     vdW  Elec       q    Type
REMARK                         _______ _______ _______ _____ _____    ______ ____
ROOT
ATOM      1  O   HOH     1      -6.795  56.729   5.608  0.00  0.00    +0.000 OA
ENDROOT
TORSDOF 0
REMARK  Name = ../refined-set-2016/3g2z/3g2z_pocket.pdb
REMARK  140 active torsions:
REMARK  status: ('A' for Active; 'I' for Inactive)
REMARK    1  A    between atoms: _1  and  _3
REMARK    2  A    between atoms: _3  and  _4
REMARK    3  A    between atoms: _3  and  _6
REMARK    4  A    between atoms: _6  and  _7
REMARK    5  A    between atoms: _7  and  _8
REMARK    6  A    between atoms: _10  and  _12
REMARK    7  A    between atoms: _12  and  _13
REMARK    8  A    between atoms: _12  and  _15
REMARK    9  A    between atoms: _17  and  _19
REMARK   10  A    between atoms: _19  and  _20
REMARK   11  A    between atoms: _19  and  _22
REMARK   12  A    between atoms: _22  and  _23
REMARK   13  A    between atoms: _25  and  _27
REMARK   14  A    between atoms: _27  and  _28
REMARK   15  A    between atoms: _27  and  _30
REMARK   16  A    between atoms: _30  and  _31
REMARK   17  A    between atoms: _34  and  _36
REMARK   18  A    between atoms: _36  and  _37
REMARK   19  A    between atoms: _36  and  _39
REMARK   20  A    between atoms: _39  and  _40
REMARK   21  A    between atoms: _40  and  _41
REMARK   22  A    between atoms: _41  and  _42
REMARK   23  A    between atoms: _42  and  _43
REMARK   24  A    between atoms: _47  and  _49
REMARK   25  A    between atoms: _49  and  _50
REMARK   26  A    between atoms: _49  and  _52
REMARK   27  A    between atoms: _55  and  _57
REMARK   28  A    between atoms: _57  and  _58
REMARK   29  A    between atoms: _57  and  _60
REMARK   30  A    between atoms: _60  and  _61
REMARK   31  A    between atoms: _66  and  _68
REMARK   32  A    between atoms: _68  and  _69
REMARK   33  A    between atoms: _68  and  _71
REMARK   34  A    between atoms: _71  and  _72
REMARK   35  A    between atoms: _77  and  _78
REMARK   36  A    between atoms: _80  and  _82
REMARK   37  A    between atoms: _82  and  _83
REMARK   38  A    between atoms: _82  and  _85
REMARK   39  A    between atoms: _85  and  _86
REMARK   40  A    between atoms: _92  and  _93
REMARK   41  A    between atoms: _98  and  _100
REMARK   42  A    between atoms: _100  and  _101
REMARK   43  A    between atoms: _104  and  _106
REMARK   44  A    between atoms: _106  and  _107
REMARK   45  A    between atoms: _106  and  _109
REMARK   46  A    between atoms: _109  and  _110
REMARK   47  A    between atoms: _113  and  _115
REMARK   48  A    between atoms: _115  and  _116
REMARK   49  A    between atoms: _115  and  _118
REMARK   50  A    between atoms: _118  and  _119
REMARK   51  A    between atoms: _124  and  _125
REMARK   52  A    between atoms: _127  and  _129
REMARK   53  A    between atoms: _129  and  _130
REMARK   54  A    between atoms: _129  and  _132
REMARK   55  A    between atoms: _132  and  _133
REMARK   56  A    between atoms: _135  and  _137
REMARK   57  A    between atoms: _137  and  _138
REMARK   58  A    between atoms: _137  and  _140
REMARK   59  A    between atoms: _140  and  _141
REMARK   60  A    between atoms: _144  and  _146
REMARK   61  A    between atoms: _146  and  _147
REMARK   62  A    between atoms: _146  and  _149
REMARK   63  A    between atoms: _149  and  _150
REMARK   64  A    between atoms: _155  and  _157
REMARK   65  A    between atoms: _157  and  _158
REMARK   66  A    between atoms: _157  and  _160
REMARK   67  A    between atoms: _160  and  _161
REMARK   68  A    between atoms: _161  and  _162
REMARK   69  A    between atoms: _166  and  _167
REMARK   70  A    between atoms: _172  and  _174
REMARK   71  A    between atoms: _174  and  _175
REMARK   72  A    between atoms: _174  and  _177
REMARK   73  A    between atoms: _177  and  _178
REMARK   74  A    between atoms: _183  and  _185
REMARK   75  A    between atoms: _185  and  _186
REMARK   76  A    between atoms: _185  and  _188
REMARK   77  A    between atoms: _188  and  _189
REMARK   78  A    between atoms: _194  and  _196
REMARK   79  A    between atoms: _196  and  _197
REMARK   80  A    between atoms: _196  and  _199
REMARK   81  A    between atoms: _199  and  _200
REMARK   82  A    between atoms: _203  and  _205
REMARK   83  A    between atoms: _205  and  _206
REMARK   84  A    between atoms: _208  and  _210
REMARK   85  A    between atoms: _210  and  _211
REMARK   86  A    between atoms: _210  and  _213
REMARK   87  A    between atoms: _213  and  _214
REMARK   88  A    between atoms: _216  and  _218
REMARK   89  A    between atoms: _218  and  _219
REMARK   90  A    between atoms: _218  and  _221
REMARK   91  A    between atoms: _221  and  _222
REMARK   92  A    between atoms: _225  and  _227
REMARK   93  A    between atoms: _227  and  _228
REMARK   94  A    between atoms: _227  and  _230
REMARK   95  A    between atoms: _230  and  _231
REMARK   96  A    between atoms: _231  and  _232
REMARK   97  A    between atoms: _232  and  _233
REMARK   98  A    between atoms: _233  and  _234
REMARK   99  A    between atoms: _238  and  _240
REMARK  100  A    between atoms: _240  and  _241
REMARK  101  A    between atoms: _240  and  _243
REMARK  102  A    between atoms: _243  and  _244
REMARK  103  A    between atoms: _247  and  _249
REMARK  104  A    between atoms: _249  and  _250
REMARK  105  A    between atoms: _252  and  _254
REMARK  106  A    between atoms: _254  and  _255
REMARK  107  A    between atoms: _254  and  _257
REMARK  108  A    between atoms: _257  and  _258
REMARK  109  A    between atoms: _260  and  _262
REMARK  110  A    between atoms: _262  and  _263
REMARK  111  A    between atoms: _265  and  _267
REMARK  112  A    between atoms: _267  and  _268
REMARK  113  A    between atoms: _267  and  _270
REMARK  114  A    between atoms: _270  and  _271
REMARK  115  A    between atoms: _274  and  _276
REMARK  116  A    between atoms: _276  and  _277
REMARK  117  A    between atoms: _276  and  _279
REMARK  118  A    between atoms: _279  and  _280
REMARK  119  A    between atoms: _283  and  _285
REMARK  120  A    between atoms: _285  and  _286
REMARK  121  A    between atoms: _285  and  _288
REMARK  122  A    between atoms: _288  and  _289
REMARK  123  A    between atoms: _294  and  _296
REMARK  124  A    between atoms: _296  and  _297
REMARK  125  A    between atoms: _296  and  _299
REMARK  126  A    between atoms: _299  and  _300
REMARK  127  A    between atoms: _303  and  _305
REMARK  128  A    between atoms: _305  and  _306
REMARK  129  A    between atoms: _305  and  _308
REMARK  130  A    between atoms: _308  and  _309
REMARK  131  A    between atoms: _311  and  _313
REMARK  132  A    between atoms: _313  and  _314
REMARK  133  A    between atoms: _313  and  _316
REMARK  134  A    between atoms: _316  and  _317
REMARK  135  A    between atoms: _317  and  _318
REMARK  136  A    between atoms: _318  and  _319
REMARK  137  A    between atoms: _328  and  _330
REMARK  138  A    between atoms: _330  and  _331
REMARK  139  A    between atoms: _330  and  _333
REMARK  140  A    between atoms: _333  and  _334
REMARK                            x       y       z     vdW  Elec       q    Type
REMARK                         _______ _______ _______ _____ _____    ______ ____
ROOT
ATOM      1  O   HOH     1      -3.603  45.361   7.030  0.00  0.00    +0.000 OA
ENDROOT
TORSDOF 0
REMARK  Name = ../refined-set-2016/3g2z/3g2z_pocket.pdb
REMARK  140 active torsions:
REMARK  status: ('A' for Active; 'I' for Inactive)
REMARK    1  A    between atoms: _1  and  _3
REMARK    2  A    between atoms: _3  and  _4
REMARK    3  A    between atoms: _3  and  _6
REMARK    4  A    between atoms: _6  and  _7
REMARK    5  A    between atoms: _7  and  _8
REMARK    6  A    between atoms: _10  and  _12
REMARK    7  A    between atoms: _12  and  _13
REMARK    8  A    between atoms: _12  and  _15
REMARK    9  A    between atoms: _17  and  _19
REMARK   10  A    between atoms: _19  and  _20
REMARK   11  A    between atoms: _19  and  _22
REMARK   12  A    between atoms: _22  and  _23
REMARK   13  A    between atoms: _25  and  _27
REMARK   14  A    between atoms: _27  and  _28
REMARK   15  A    between atoms: _27  and  _30
REMARK   16  A    between atoms: _30  and  _31
REMARK   17  A    between atoms: _34  and  _36
REMARK   18  A    between atoms: _36  and  _37
REMARK   19  A    between atoms: _36  and  _39
REMARK   20  A    between atoms: _39  and  _40
REMARK   21  A    between atoms: _40  and  _41
REMARK   22  A    between atoms: _41  and  _42
REMARK   23  A    between atoms: _42  and  _43
REMARK   24  A    between atoms: _47  and  _49
REMARK   25  A    between atoms: _49  and  _50
REMARK   26  A    between atoms: _49  and  _52
REMARK   27  A    between atoms: _55  and  _57
REMARK   28  A    between atoms: _57  and  _58
REMARK   29  A    between atoms: _57  and  _60
REMARK   30  A    between atoms: _60  and  _61
REMARK   31  A    between atoms: _66  and  _68
REMARK   32  A    between atoms: _68  and  _69
REMARK   33  A    between atoms: _68  and  _71
REMARK   34  A    between atoms: _71  and  _72
REMARK   35  A    between atoms: _77  and  _78
REMARK   36  A    between atoms: _80  and  _82
REMARK   37  A    between atoms: _82  and  _83
REMARK   38  A    between atoms: _82  and  _85
REMARK   39  A    between atoms: _85  and  _86
REMARK   40  A    between atoms: _92  and  _93
REMARK   41  A    between atoms: _98  and  _100
REMARK   42  A    between atoms: _100  and  _101
REMARK   43  A    between atoms: _104  and  _106
REMARK   44  A    between atoms: _106  and  _107
REMARK   45  A    between atoms: _106  and  _109
REMARK   46  A    between atoms: _109  and  _110
REMARK   47  A    between atoms: _113  and  _115
REMARK   48  A    between atoms: _115  and  _116
REMARK   49  A    between atoms: _115  and  _118
REMARK   50  A    between atoms: _118  and  _119
REMARK   51  A    between atoms: _124  and  _125
REMARK   52  A    between atoms: _127  and  _129
REMARK   53  A    between atoms: _129  and  _130
REMARK   54  A    between atoms: _129  and  _132
REMARK   55  A    between atoms: _132  and  _133
REMARK   56  A    between atoms: _135  and  _137
REMARK   57  A    between atoms: _137  and  _138
REMARK   58  A    between atoms: _137  and  _140
REMARK   59  A    between atoms: _140  and  _141
REMARK   60  A    between atoms: _144  and  _146
REMARK   61  A    between atoms: _146  and  _147
REMARK   62  A    between atoms: _146  and  _149
REMARK   63  A    between atoms: _149  and  _150
REMARK   64  A    between atoms: _155  and  _157
REMARK   65  A    between atoms: _157  and  _158
REMARK   66  A    between atoms: _157  and  _160
REMARK   67  A    between atoms: _160  and  _161
REMARK   68  A    between atoms: _161  and  _162
REMARK   69  A    between atoms: _166  and  _167
REMARK   70  A    between atoms: _172  and  _174
REMARK   71  A    between atoms: _174  and  _175
REMARK   72  A    between atoms: _174  and  _177
REMARK   73  A    between atoms: _177  and  _178
REMARK   74  A    between atoms: _183  and  _185
REMARK   75  A    between atoms: _185  and  _186
REMARK   76  A    between atoms: _185  and  _188
REMARK   77  A    between atoms: _188  and  _189
REMARK   78  A    between atoms: _194  and  _196
REMARK   79  A    between atoms: _196  and  _197
REMARK   80  A    between atoms: _196  and  _199
REMARK   81  A    between atoms: _199  and  _200
REMARK   82  A    between atoms: _203  and  _205
REMARK   83  A    between atoms: _205  and  _206
REMARK   84  A    between atoms: _208  and  _210
REMARK   85  A    between atoms: _210  and  _211
REMARK   86  A    between atoms: _210  and  _213
REMARK   87  A    between atoms: _213  and  _214
REMARK   88  A    between atoms: _216  and  _218
REMARK   89  A    between atoms: _218  and  _219
REMARK   90  A    between atoms: _218  and  _221
REMARK   91  A    between atoms: _221  and  _222
REMARK   92  A    between atoms: _225  and  _227
REMARK   93  A    between atoms: _227  and  _228
REMARK   94  A    between atoms: _227  and  _230
REMARK   95  A    between atoms: _230  and  _231
REMARK   96  A    between atoms: _231  and  _232
REMARK   97  A    between atoms: _232  and  _233
REMARK   98  A    between atoms: _233  and  _234
REMARK   99  A    between atoms: _238  and  _240
REMARK  100  A    between atoms: _240  and  _241
REMARK  101  A    between atoms: _240  and  _243
REMARK  102  A    between atoms: _243  and  _244
REMARK  103  A    between atoms: _247  and  _249
REMARK  104  A    between atoms: _249  and  _250
REMARK  105  A    between atoms: _252  and  _254
REMARK  106  A    between atoms: _254  and  _255
REMARK  107  A    between atoms: _254  and  _257
REMARK  108  A    between atoms: _257  and  _258
REMARK  109  A    between atoms: _260  and  _262
REMARK  110  A    between atoms: _262  and  _263
REMARK  111  A    between atoms: _265  and  _267
REMARK  112  A    between atoms: _267  and  _268
REMARK  113  A    between atoms: _267  and  _270
REMARK  114  A    between atoms: _270  and  _271
REMARK  115  A    between atoms: _274  and  _276
REMARK  116  A    between atoms: _276  and  _277
REMARK  117  A    between atoms: _276  and  _279
REMARK  118  A    between atoms: _279  and  _280
REMARK  119  A    between atoms: _283  and  _285
REMARK  120  A    between atoms: _285  and  _286
REMARK  121  A    between atoms: _285  and  _288
REMARK  122  A    between atoms: _288  and  _289
REMARK  123  A    between atoms: _294  and  _296
REMARK  124  A    between atoms: _296  and  _297
REMARK  125  A    between atoms: _296  and  _299
REMARK  126  A    between atoms: _299  and  _300
REMARK  127  A    between atoms: _303  and  _305
REMARK  128  A    between atoms: _305  and  _306
REMARK  129  A    between atoms: _305  and  _308
REMARK  130  A    between atoms: _308  and  _309
REMARK  131  A    between atoms: _311  and  _313
REMARK  132  A    between atoms: _313  and  _314
REMARK  133  A    between atoms: _313  and  _316
REMARK  134  A    between atoms: _316  and  _317
REMARK  135  A    between atoms: _317  and  _318
REMARK  136  A    between atoms: _318  and  _319
REMARK  137  A    between atoms: _328  and  _330
REMARK  138  A    between atoms: _330  and  _331
REMARK  139  A    between atoms: _330  and  _333
REMARK  140  A    between atoms: _333  and  _334
REMARK                            x       y       z     vdW  Elec       q    Type
REMARK                         _______ _______ _______ _____ _____    ______ ____
ROOT
ATOM      1  O   HOH     1       4.493  50.162   8.755  0.00  0.00    +0.000 OA
ENDROOT
TORSDOF 0
REMARK  Name = ../refined-set-2016/3g2z/3g2z_pocket.pdb
REMARK  140 active torsions:
REMARK  status: ('A' for Active; 'I' for Inactive)
REMARK    1  A    between atoms: _1  and  _3
REMARK    2  A    between atoms: _3  and  _4
REMARK    3  A    between atoms: _3  and  _6
REMARK    4  A    between atoms: _6  and  _7
REMARK    5  A    between atoms: _7  and  _8
REMARK    6  A    between atoms: _10  and  _12
REMARK    7  A    between atoms: _12  and  _13
REMARK    8  A    between atoms: _12  and  _15
REMARK    9  A    between atoms: _17  and  _19
REMARK   10  A    between atoms: _19  and  _20
REMARK   11  A    between atoms: _19  and  _22
REMARK   12  A    between atoms: _22  and  _23
REMARK   13  A    between atoms: _25  and  _27
REMARK   14  A    between atoms: _27  and  _28
REMARK   15  A    between atoms: _27  and  _30
REMARK   16  A    between atoms: _30  and  _31
REMARK   17  A    between atoms: _34  and  _36
REMARK   18  A    between atoms: _36  and  _37
REMARK   19  A    between atoms: _36  and  _39
REMARK   20  A    between atoms: _39  and  _40
REMARK   21  A    between atoms: _40  and  _41
REMARK   22  A    between atoms: _41  and  _42
REMARK   23  A    between atoms: _42  and  _43
REMARK   24  A    between atoms: _47  and  _49
REMARK   25  A    between atoms: _49  and  _50
REMARK   26  A    between atoms: _49  and  _52
REMARK   27  A    between atoms: _55  and  _57
REMARK   28  A    between atoms: _57  and  _58
REMARK   29  A    between atoms: _57  and  _60
REMARK   30  A    between atoms: _60  and  _61
REMARK   31  A    between atoms: _66  and  _68
REMARK   32  A    between atoms: _68  and  _69
REMARK   33  A    between atoms: _68  and  _71
REMARK   34  A    between atoms: _71  and  _72
REMARK   35  A    between atoms: _77  and  _78
REMARK   36  A    between atoms: _80  and  _82
REMARK   37  A    between atoms: _82  and  _83
REMARK   38  A    between atoms: _82  and  _85
REMARK   39  A    between atoms: _85  and  _86
REMARK   40  A    between atoms: _92  and  _93
REMARK   41  A    between atoms: _98  and  _100
REMARK   42  A    between atoms: _100  and  _101
REMARK   43  A    between atoms: _104  and  _106
REMARK   44  A    between atoms: _106  and  _107
REMARK   45  A    between atoms: _106  and  _109
REMARK   46  A    between atoms: _109  and  _110
REMARK   47  A    between atoms: _113  and  _115
REMARK   48  A    between atoms: _115  and  _116
REMARK   49  A    between atoms: _115  and  _118
REMARK   50  A    between atoms: _118  and  _119
REMARK   51  A    between atoms: _124  and  _125
REMARK   52  A    between atoms: _127  and  _129
REMARK   53  A    between atoms: _129  and  _130
REMARK   54  A    between atoms: _129  and  _132
REMARK   55  A    between atoms: _132  and  _133
REMARK   56  A    between atoms: _135  and  _137
REMARK   57  A    between atoms: _137  and  _138
REMARK   58  A    between atoms: _137  and  _140
REMARK   59  A    between atoms: _140  and  _141
REMARK   60  A    between atoms: _144  and  _146
REMARK   61  A    between atoms: _146  and  _147
REMARK   62  A    between atoms: _146  and  _149
REMARK   63  A    between atoms: _149  and  _150
REMARK   64  A    between atoms: _155  and  _157
REMARK   65  A    between atoms: _157  and  _158
REMARK   66  A    between atoms: _157  and  _160
REMARK   67  A    between atoms: _160  and  _161
REMARK   68  A    between atoms: _161  and  _162
REMARK   69  A    between atoms: _166  and  _167
REMARK   70  A    between atoms: _172  and  _174
REMARK   71  A    between atoms: _174  and  _175
REMARK   72  A    between atoms: _174  and  _177
REMARK   73  A    between atoms: _177  and  _178
REMARK   74  A    between atoms: _183  and  _185
REMARK   75  A    between atoms: _185  and  _186
REMARK   76  A    between atoms: _185  and  _188
REMARK   77  A    between atoms: _188  and  _189
REMARK   78  A    between atoms: _194  and  _196
REMARK   79  A    between atoms: _196  and  _197
REMARK   80  A    between atoms: _196  and  _199
REMARK   81  A    between atoms: _199  and  _200
REMARK   82  A    between atoms: _203  and  _205
REMARK   83  A    between atoms: _205  and  _206
REMARK   84  A    between atoms: _208  and  _210
REMARK   85  A    between atoms: _210  and  _211
REMARK   86  A    between atoms: _210  and  _213
REMARK   87  A    between atoms: _213  and  _214
REMARK   88  A    between atoms: _216  and  _218
REMARK   89  A    between atoms: _218  and  _219
REMARK   90  A    between atoms: _218  and  _221
REMARK   91  A    between atoms: _221  and  _222
REMARK   92  A    between atoms: _225  and  _227
REMARK   93  A    between atoms: _227  and  _228
REMARK   94  A    between atoms: _227  and  _230
REMARK   95  A    between atoms: _230  and  _231
REMARK   96  A    between atoms: _231  and  _232
REMARK   97  A    between atoms: _232  and  _233
REMARK   98  A    between atoms: _233  and  _234
REMARK   99  A    between atoms: _238  and  _240
REMARK  100  A    between atoms: _240  and  _241
REMARK  101  A    between atoms: _240  and  _243
REMARK  102  A    between atoms: _243  and  _244
REMARK  103  A    between atoms: _247  and  _249
REMARK  104  A    between atoms: _249  and  _250
REMARK  105  A    between atoms: _252  and  _254
REMARK  106  A    between atoms: _254  and  _255
REMARK  107  A    between atoms: _254  and  _257
REMARK  108  A    between atoms: _257  and  _258
REMARK  109  A    between atoms: _260  and  _262
REMARK  110  A    between atoms: _262  and  _263
REMARK  111  A    between atoms: _265  and  _267
REMARK  112  A    between atoms: _267  and  _268
REMARK  113  A    between atoms: _267  and  _270
REMARK  114  A    between atoms: _270  and  _271
REMARK  115  A    between atoms: _274  and  _276
REMARK  116  A    between atoms: _276  and  _277
REMARK  117  A    between atoms: _276  and  _279
REMARK  118  A    between atoms: _279  and  _280
REMARK  119  A    between atoms: _283  and  _285
REMARK  120  A    between atoms: _285  and  _286
REMARK  121  A    between atoms: _285  and  _288
REMARK  122  A    between atoms: _288  and  _289
REMARK  123  A    between atoms: _294  and  _296
REMARK  124  A    between atoms: _296  and  _297
REMARK  125  A    between atoms: _296  and  _299
REMARK  126  A    between atoms: _299  and  _300
REMARK  127  A    between atoms: _303  and  _305
REMARK  128  A    between atoms: _305  and  _306
REMARK  129  A    between atoms: _305  and  _308
REMARK  130  A    between atoms: _308  and  _309
REMARK  131  A    between atoms: _311  and  _313
REMARK  132  A    between atoms: _313  and  _314
REMARK  133  A    between atoms: _313  and  _316
REMARK  134  A    between atoms: _316  and  _317
REMARK  135  A    between atoms: _317  and  _318
REMARK  136  A    between atoms: _318  and  _319
REMARK  137  A    between atoms: _328  and  _330
REMARK  138  A    between atoms: _330  and  _331
REMARK  139  A    between atoms: _330  and  _333
REMARK  140  A    between atoms: _333  and  _334
REMARK                            x       y       z     vdW  Elec       q    Type
REMARK                         _______ _______ _______ _____ _____    ______ ____
ROOT
ATOM      1  O   HOH     1       2.908  54.672   8.924  0.00  0.00    +0.000 OA
ENDROOT
TORSDOF 0
REMARK  Name = ../refined-set-2016/3g2z/3g2z_pocket.pdb
REMARK  140 active torsions:
REMARK  status: ('A' for Active; 'I' for Inactive)
REMARK    1  A    between atoms: _1  and  _3
REMARK    2  A    between atoms: _3  and  _4
REMARK    3  A    between atoms: _3  and  _6
REMARK    4  A    between atoms: _6  and  _7
REMARK    5  A    between atoms: _7  and  _8
REMARK    6  A    between atoms: _10  and  _12
REMARK    7  A    between atoms: _12  and  _13
REMARK    8  A    between atoms: _12  and  _15
REMARK    9  A    between atoms: _17  and  _19
REMARK   10  A    between atoms: _19  and  _20
REMARK   11  A    between atoms: _19  and  _22
REMARK   12  A    between atoms: _22  and  _23
REMARK   13  A    between atoms: _25  and  _27
REMARK   14  A    between atoms: _27  and  _28
REMARK   15  A    between atoms: _27  and  _30
REMARK   16  A    between atoms: _30  and  _31
REMARK   17  A    between atoms: _34  and  _36
REMARK   18  A    between atoms: _36  and  _37
REMARK   19  A    between atoms: _36  and  _39
REMARK   20  A    between atoms: _39  and  _40
REMARK   21  A    between atoms: _40  and  _41
REMARK   22  A    between atoms: _41  and  _42
REMARK   23  A    between atoms: _42  and  _43
REMARK   24  A    between atoms: _47  and  _49
REMARK   25  A    between atoms: _49  and  _50
REMARK   26  A    between atoms: _49  and  _52
REMARK   27  A    between atoms: _55  and  _57
REMARK   28  A    between atoms: _57  and  _58
REMARK   29  A    between atoms: _57  and  _60
REMARK   30  A    between atoms: _60  and  _61
REMARK   31  A    between atoms: _66  and  _68
REMARK   32  A    between atoms: _68  and  _69
REMARK   33  A    between atoms: _68  and  _71
REMARK   34  A    between atoms: _71  and  _72
REMARK   35  A    between atoms: _77  and  _78
REMARK   36  A    between atoms: _80  and  _82
REMARK   37  A    between atoms: _82  and  _83
REMARK   38  A    between atoms: _82  and  _85
REMARK   39  A    between atoms: _85  and  _86
REMARK   40  A    between atoms: _92  and  _93
REMARK   41  A    between atoms: _98  and  _100
REMARK   42  A    between atoms: _100  and  _101
REMARK   43  A    between atoms: _104  and  _106
REMARK   44  A    between atoms: _106  and  _107
REMARK   45  A    between atoms: _106  and  _109
REMARK   46  A    between atoms: _109  and  _110
REMARK   47  A    between atoms: _113  and  _115
REMARK   48  A    between atoms: _115  and  _116
REMARK   49  A    between atoms: _115  and  _118
REMARK   50  A    between atoms: _118  and  _119
REMARK   51  A    between atoms: _124  and  _125
REMARK   52  A    between atoms: _127  and  _129
REMARK   53  A    between atoms: _129  and  _130
REMARK   54  A    between atoms: _129  and  _132
REMARK   55  A    between atoms: _132  and  _133
REMARK   56  A    between atoms: _135  and  _137
REMARK   57  A    between atoms: _137  and  _138
REMARK   58  A    between atoms: _137  and  _140
REMARK   59  A    between atoms: _140  and  _141
REMARK   60  A    between atoms: _144  and  _146
REMARK   61  A    between atoms: _146  and  _147
REMARK   62  A    between atoms: _146  and  _149
REMARK   63  A    between atoms: _149  and  _150
REMARK   64  A    between atoms: _155  and  _157
REMARK   65  A    between atoms: _157  and  _158
REMARK   66  A    between atoms: _157  and  _160
REMARK   67  A    between atoms: _160  and  _161
REMARK   68  A    between atoms: _161  and  _162
REMARK   69  A    between atoms: _166  and  _167
REMARK   70  A    between atoms: _172  and  _174
REMARK   71  A    between atoms: _174  and  _175
REMARK   72  A    between atoms: _174  and  _177
REMARK   73  A    between atoms: _177  and  _178
REMARK   74  A    between atoms: _183  and  _185
REMARK   75  A    between atoms: _185  and  _186
REMARK   76  A    between atoms: _185  and  _188
REMARK   77  A    between atoms: _188  and  _189
REMARK   78  A    between atoms: _194  and  _196
REMARK   79  A    between atoms: _196  and  _197
REMARK   80  A    between atoms: _196  and  _199
REMARK   81  A    between atoms: _199  and  _200
REMARK   82  A    between atoms: _203  and  _205
REMARK   83  A    between atoms: _205  and  _206
REMARK   84  A    between atoms: _208  and  _210
REMARK   85  A    between atoms: _210  and  _211
REMARK   86  A    between atoms: _210  and  _213
REMARK   87  A    between atoms: _213  and  _214
REMARK   88  A    between atoms: _216  and  _218
REMARK   89  A    between atoms: _218  and  _219
REMARK   90  A    between atoms: _218  and  _221
REMARK   91  A    between atoms: _221  and  _222
REMARK   92  A    between atoms: _225  and  _227
REMARK   93  A    between atoms: _227  and  _228
REMARK   94  A    between atoms: _227  and  _230
REMARK   95  A    between atoms: _230  and  _231
REMARK   96  A    between atoms: _231  and  _232
REMARK   97  A    between atoms: _232  and  _233
REMARK   98  A    between atoms: _233  and  _234
REMARK   99  A    between atoms: _238  and  _240
REMARK  100  A    between atoms: _240  and  _241
REMARK  101  A    between atoms: _240  and  _243
REMARK  102  A    between atoms: _243  and  _244
REMARK  103  A    between atoms: _247  and  _249
REMARK  104  A    between atoms: _249  and  _250
REMARK  105  A    between atoms: _252  and  _254
REMARK  106  A    between atoms: _254  and  _255
REMARK  107  A    between atoms: _254  and  _257
REMARK  108  A    between atoms: _257  and  _258
REMARK  109  A    between atoms: _260  and  _262
REMARK  110  A    between atoms: _262  and  _263
REMARK  111  A    between atoms: _265  and  _267
REMARK  112  A    between atoms: _267  and  _268
REMARK  113  A    between atoms: _267  and  _270
REMARK  114  A    between atoms: _270  and  _271
REMARK  115  A    between atoms: _274  and  _276
REMARK  116  A    between atoms: _276  and  _277
REMARK  117  A    between atoms: _276  and  _279
REMARK  118  A    between atoms: _279  and  _280
REMARK  119  A    between atoms: _283  and  _285
REMARK  120  A    between atoms: _285  and  _286
REMARK  121  A    between atoms: _285  and  _288
REMARK  122  A    between atoms: _288  and  _289
REMARK  123  A    between atoms: _294  and  _296
REMARK  124  A    between atoms: _296  and  _297
REMARK  125  A    between atoms: _296  and  _299
REMARK  126  A    between atoms: _299  and  _300
REMARK  127  A    between atoms: _303  and  _305
REMARK  128  A    between atoms: _305  and  _306
REMARK  129  A    between atoms: _305  and  _308
REMARK  130  A    between atoms: _308  and  _309
REMARK  131  A    between atoms: _311  and  _313
REMARK  132  A    between atoms: _313  and  _314
REMARK  133  A    between atoms: _313  and  _316
REMARK  134  A    between atoms: _316  and  _317
REMARK  135  A    between atoms: _317  and  _318
REMARK  136  A    between atoms: _318  and  _319
REMARK  137  A    between atoms: _328  and  _330
REMARK  138  A    between atoms: _330  and  _331
REMARK  139  A    between atoms: _330  and  _333
REMARK  140  A    between atoms: _333  and  _334
REMARK                            x       y       z     vdW  Elec       q    Type
REMARK                         _______ _______ _______ _____ _____    ______ ____
ROOT
ATOM      1  O   HOH     1      -1.555  53.010   7.184  0.00  0.00    +0.000 OA
ENDROOT
TORSDOF 0
REMARK  Name = ../refined-set-2016/3g2z/3g2z_pocket.pdb
REMARK  140 active torsions:
REMARK  status: ('A' for Active; 'I' for Inactive)
REMARK    1  A    between atoms: _1  and  _3
REMARK    2  A    between atoms: _3  and  _4
REMARK    3  A    between atoms: _3  and  _6
REMARK    4  A    between atoms: _6  and  _7
REMARK    5  A    between atoms: _7  and  _8
REMARK    6  A    between atoms: _10  and  _12
REMARK    7  A    between atoms: _12  and  _13
REMARK    8  A    between atoms: _12  and  _15
REMARK    9  A    between atoms: _17  and  _19
REMARK   10  A    between atoms: _19  and  _20
REMARK   11  A    between atoms: _19  and  _22
REMARK   12  A    between atoms: _22  and  _23
REMARK   13  A    between atoms: _25  and  _27
REMARK   14  A    between atoms: _27  and  _28
REMARK   15  A    between atoms: _27  and  _30
REMARK   16  A    between atoms: _30  and  _31
REMARK   17  A    between atoms: _34  and  _36
REMARK   18  A    between atoms: _36  and  _37
REMARK   19  A    between atoms: _36  and  _39
REMARK   20  A    between atoms: _39  and  _40
REMARK   21  A    between atoms: _40  and  _41
REMARK   22  A    between atoms: _41  and  _42
REMARK   23  A    between atoms: _42  and  _43
REMARK   24  A    between atoms: _47  and  _49
REMARK   25  A    between atoms: _49  and  _50
REMARK   26  A    between atoms: _49  and  _52
REMARK   27  A    between atoms: _55  and  _57
REMARK   28  A    between atoms: _57  and  _58
REMARK   29  A    between atoms: _57  and  _60
REMARK   30  A    between atoms: _60  and  _61
REMARK   31  A    between atoms: _66  and  _68
REMARK   32  A    between atoms: _68  and  _69
REMARK   33  A    between atoms: _68  and  _71
REMARK   34  A    between atoms: _71  and  _72
REMARK   35  A    between atoms: _77  and  _78
REMARK   36  A    between atoms: _80  and  _82
REMARK   37  A    between atoms: _82  and  _83
REMARK   38  A    between atoms: _82  and  _85
REMARK   39  A    between atoms: _85  and  _86
REMARK   40  A    between atoms: _92  and  _93
REMARK   41  A    between atoms: _98  and  _100
REMARK   42  A    between atoms: _100  and  _101
REMARK   43  A    between atoms: _104  and  _106
REMARK   44  A    between atoms: _106  and  _107
REMARK   45  A    between atoms: _106  and  _109
REMARK   46  A    between atoms: _109  and  _110
REMARK   47  A    between atoms: _113  and  _115
REMARK   48  A    between atoms: _115  and  _116
REMARK   49  A    between atoms: _115  and  _118
REMARK   50  A    between atoms: _118  and  _119
REMARK   51  A    between atoms: _124  and  _125
REMARK   52  A    between atoms: _127  and  _129
REMARK   53  A    between atoms: _129  and  _130
REMARK   54  A    between atoms: _129  and  _132
REMARK   55  A    between atoms: _132  and  _133
REMARK   56  A    between atoms: _135  and  _137
REMARK   57  A    between atoms: _137  and  _138
REMARK   58  A    between atoms: _137  and  _140
REMARK   59  A    between atoms: _140  and  _141
REMARK   60  A    between atoms: _144  and  _146
REMARK   61  A    between atoms: _146  and  _147
REMARK   62  A    between atoms: _146  and  _149
REMARK   63  A    between atoms: _149  and  _150
REMARK   64  A    between atoms: _155  and  _157
REMARK   65  A    between atoms: _157  and  _158
REMARK   66  A    between atoms: _157  and  _160
REMARK   67  A    between atoms: _160  and  _161
REMARK   68  A    between atoms: _161  and  _162
REMARK   69  A    between atoms: _166  and  _167
REMARK   70  A    between atoms: _172  and  _174
REMARK   71  A    between atoms: _174  and  _175
REMARK   72  A    between atoms: _174  and  _177
REMARK   73  A    between atoms: _177  and  _178
REMARK   74  A    between atoms: _183  and  _185
REMARK   75  A    between atoms: _185  and  _186
REMARK   76  A    between atoms: _185  and  _188
REMARK   77  A    between atoms: _188  and  _189
REMARK   78  A    between atoms: _194  and  _196
REMARK   79  A    between atoms: _196  and  _197
REMARK   80  A    between atoms: _196  and  _199
REMARK   81  A    between atoms: _199  and  _200
REMARK   82  A    between atoms: _203  and  _205
REMARK   83  A    between atoms: _205  and  _206
REMARK   84  A    between atoms: _208  and  _210
REMARK   85  A    between atoms: _210  and  _211
REMARK   86  A    between atoms: _210  and  _213
REMARK   87  A    between atoms: _213  and  _214
REMARK   88  A    between atoms: _216  and  _218
REMARK   89  A    between atoms: _218  and  _219
REMARK   90  A    between atoms: _218  and  _221
REMARK   91  A    between atoms: _221  and  _222
REMARK   92  A    between atoms: _225  and  _227
REMARK   93  A    between atoms: _227  and  _228
REMARK   94  A    between atoms: _227  and  _230
REMARK   95  A    between atoms: _230  and  _231
REMARK   96  A    between atoms: _231  and  _232
REMARK   97  A    between atoms: _232  and  _233
REMARK   98  A    between atoms: _233  and  _234
REMARK   99  A    between atoms: _238  and  _240
REMARK  100  A    between atoms: _240  and  _241
REMARK  101  A    between atoms: _240  and  _243
REMARK  102  A    between atoms: _243  and  _244
REMARK  103  A    between atoms: _247  and  _249
REMARK  104  A    between atoms: _249  and  _250
REMARK  105  A    between atoms: _252  and  _254
REMARK  106  A    between atoms: _254  and  _255
REMARK  107  A    between atoms: _254  and  _257
REMARK  108  A    between atoms: _257  and  _258
REMARK  109  A    between atoms: _260  and  _262
REMARK  110  A    between atoms: _262  and  _263
REMARK  111  A    between atoms: _265  and  _267
REMARK  112  A    between atoms: _267  and  _268
REMARK  113  A    between atoms: _267  and  _270
REMARK  114  A    between atoms: _270  and  _271
REMARK  115  A    between atoms: _274  and  _276
REMARK  116  A    between atoms: _276  and  _277
REMARK  117  A    between atoms: _276  and  _279
REMARK  118  A    between atoms: _279  and  _280
REMARK  119  A    between atoms: _283  and  _285
REMARK  120  A    between atoms: _285  and  _286
REMARK  121  A    between atoms: _285  and  _288
REMARK  122  A    between atoms: _288  and  _289
REMARK  123  A    between atoms: _294  and  _296
REMARK  124  A    between atoms: _296  and  _297
REMARK  125  A    between atoms: _296  and  _299
REMARK  126  A    between atoms: _299  and  _300
REMARK  127  A    between atoms: _303  and  _305
REMARK  128  A    between atoms: _305  and  _306
REMARK  129  A    between atoms: _305  and  _308
REMARK  130  A    between atoms: _308  and  _309
REMARK  131  A    between atoms: _311  and  _313
REMARK  132  A    between atoms: _313  and  _314
REMARK  133  A    between atoms: _313  and  _316
REMARK  134  A    between atoms: _316  and  _317
REMARK  135  A    between atoms: _317  and  _318
REMARK  136  A    between atoms: _318  and  _319
REMARK  137  A    between atoms: _328  and  _330
REMARK  138  A    between atoms: _330  and  _331
REMARK  139  A    between atoms: _330  and  _333
REMARK  140  A    between atoms: _333  and  _334
REMARK                            x       y       z     vdW  Elec       q    Type
REMARK                         _______ _______ _______ _____ _____    ______ ____
ROOT
ATOM      1  O   HOH     1      -6.389  44.482  13.692  0.00  0.00    +0.000 OA
ENDROOT
TORSDOF 0
REMARK  Name = ../refined-set-2016/3g2z/3g2z_pocket.pdb
REMARK  140 active torsions:
REMARK  status: ('A' for Active; 'I' for Inactive)
REMARK    1  A    between atoms: _1  and  _3
REMARK    2  A    between atoms: _3  and  _4
REMARK    3  A    between atoms: _3  and  _6
REMARK    4  A    between atoms: _6  and  _7
REMARK    5  A    between atoms: _7  and  _8
REMARK    6  A    between atoms: _10  and  _12
REMARK    7  A    between atoms: _12  and  _13
REMARK    8  A    between atoms: _12  and  _15
REMARK    9  A    between atoms: _17  and  _19
REMARK   10  A    between atoms: _19  and  _20
REMARK   11  A    between atoms: _19  and  _22
REMARK   12  A    between atoms: _22  and  _23
REMARK   13  A    between atoms: _25  and  _27
REMARK   14  A    between atoms: _27  and  _28
REMARK   15  A    between atoms: _27  and  _30
REMARK   16  A    between atoms: _30  and  _31
REMARK   17  A    between atoms: _34  and  _36
REMARK   18  A    between atoms: _36  and  _37
REMARK   19  A    between atoms: _36  and  _39
REMARK   20  A    between atoms: _39  and  _40
REMARK   21  A    between atoms: _40  and  _41
REMARK   22  A    between atoms: _41  and  _42
REMARK   23  A    between atoms: _42  and  _43
REMARK   24  A    between atoms: _47  and  _49
REMARK   25  A    between atoms: _49  and  _50
REMARK   26  A    between atoms: _49  and  _52
REMARK   27  A    between atoms: _55  and  _57
REMARK   28  A    between atoms: _57  and  _58
REMARK   29  A    between atoms: _57  and  _60
REMARK   30  A    between atoms: _60  and  _61
REMARK   31  A    between atoms: _66  and  _68
REMARK   32  A    between atoms: _68  and  _69
REMARK   33  A    between atoms: _68  and  _71
REMARK   34  A    between atoms: _71  and  _72
REMARK   35  A    between atoms: _77  and  _78
REMARK   36  A    between atoms: _80  and  _82
REMARK   37  A    between atoms: _82  and  _83
REMARK   38  A    between atoms: _82  and  _85
REMARK   39  A    between atoms: _85  and  _86
REMARK   40  A    between atoms: _92  and  _93
REMARK   41  A    between atoms: _98  and  _100
REMARK   42  A    between atoms: _100  and  _101
REMARK   43  A    between atoms: _104  and  _106
REMARK   44  A    between atoms: _106  and  _107
REMARK   45  A    between atoms: _106  and  _109
REMARK   46  A    between atoms: _109  and  _110
REMARK   47  A    between atoms: _113  and  _115
REMARK   48  A    between atoms: _115  and  _116
REMARK   49  A    between atoms: _115  and  _118
REMARK   50  A    between atoms: _118  and  _119
REMARK   51  A    between atoms: _124  and  _125
REMARK   52  A    between atoms: _127  and  _129
REMARK   53  A    between atoms: _129  and  _130
REMARK   54  A    between atoms: _129  and  _132
REMARK   55  A    between atoms: _132  and  _133
REMARK   56  A    between atoms: _135  and  _137
REMARK   57  A    between atoms: _137  and  _138
REMARK   58  A    between atoms: _137  and  _140
REMARK   59  A    between atoms: _140  and  _141
REMARK   60  A    between atoms: _144  and  _146
REMARK   61  A    between atoms: _146  and  _147
REMARK   62  A    between atoms: _146  and  _149
REMARK   63  A    between atoms: _149  and  _150
REMARK   64  A    between atoms: _155  and  _157
REMARK   65  A    between atoms: _157  and  _158
REMARK   66  A    between atoms: _157  and  _160
REMARK   67  A    between atoms: _160  and  _161
REMARK   68  A    between atoms: _161  and  _162
REMARK   69  A    between atoms: _166  and  _167
REMARK   70  A    between atoms: _172  and  _174
REMARK   71  A    between atoms: _174  and  _175
REMARK   72  A    between atoms: _174  and  _177
REMARK   73  A    between atoms: _177  and  _178
REMARK   74  A    between atoms: _183  and  _185
REMARK   75  A    between atoms: _185  and  _186
REMARK   76  A    between atoms: _185  and  _188
REMARK   77  A    between atoms: _188  and  _189
REMARK   78  A    between atoms: _194  and  _196
REMARK   79  A    between atoms: _196  and  _197
REMARK   80  A    between atoms: _196  and  _199
REMARK   81  A    between atoms: _199  and  _200
REMARK   82  A    between atoms: _203  and  _205
REMARK   83  A    between atoms: _205  and  _206
REMARK   84  A    between atoms: _208  and  _210
REMARK   85  A    between atoms: _210  and  _211
REMARK   86  A    between atoms: _210  and  _213
REMARK   87  A    between atoms: _213  and  _214
REMARK   88  A    between atoms: _216  and  _218
REMARK   89  A    between atoms: _218  and  _219
REMARK   90  A    between atoms: _218  and  _221
REMARK   91  A    between atoms: _221  and  _222
REMARK   92  A    between atoms: _225  and  _227
REMARK   93  A    between atoms: _227  and  _228
REMARK   94  A    between atoms: _227  and  _230
REMARK   95  A    between atoms: _230  and  _231
REMARK   96  A    between atoms: _231  and  _232
REMARK   97  A    between atoms: _232  and  _233
REMARK   98  A    between atoms: _233  and  _234
REMARK   99  A    between atoms: _238  and  _240
REMARK  100  A    between atoms: _240  and  _241
REMARK  101  A    between atoms: _240  and  _243
REMARK  102  A    between atoms: _243  and  _244
REMARK  103  A    between atoms: _247  and  _249
REMARK  104  A    between atoms: _249  and  _250
REMARK  105  A    between atoms: _252  and  _254
REMARK  106  A    between atoms: _254  and  _255
REMARK  107  A    between atoms: _254  and  _257
REMARK  108  A    between atoms: _257  and  _258
REMARK  109  A    between atoms: _260  and  _262
REMARK  110  A    between atoms: _262  and  _263
REMARK  111  A    between atoms: _265  and  _267
REMARK  112  A    between atoms: _267  and  _268
REMARK  113  A    between atoms: _267  and  _270
REMARK  114  A    between atoms: _270  and  _271
REMARK  115  A    between atoms: _274  and  _276
REMARK  116  A    between atoms: _276  and  _277
REMARK  117  A    between atoms: _276  and  _279
REMARK  118  A    between atoms: _279  and  _280
REMARK  119  A    between atoms: _283  and  _285
REMARK  120  A    between atoms: _285  and  _286
REMARK  121  A    between atoms: _285  and  _288
REMARK  122  A    between atoms: _288  and  _289
REMARK  123  A    between atoms: _294  and  _296
REMARK  124  A    between atoms: _296  and  _297
REMARK  125  A    between atoms: _296  and  _299
REMARK  126  A    between atoms: _299  and  _300
REMARK  127  A    between atoms: _303  and  _305
REMARK  128  A    between atoms: _305  and  _306
REMARK  129  A    between atoms: _305  and  _308
REMARK  130  A    between atoms: _308  and  _309
REMARK  131  A    between atoms: _311  and  _313
REMARK  132  A    between atoms: _313  and  _314
REMARK  133  A    between atoms: _313  and  _316
REMARK  134  A    between atoms: _316  and  _317
REMARK  135  A    between atoms: _317  and  _318
REMARK  136  A    between atoms: _318  and  _319
REMARK  137  A    between atoms: _328  and  _330
REMARK  138  A    between atoms: _330  and  _331
REMARK  139  A    between atoms: _330  and  _333
REMARK  140  A    between atoms: _333  and  _334
REMARK                            x       y       z     vdW  Elec       q    Type
REMARK                         _______ _______ _______ _____ _____    ______ ____
ROOT
ATOM      1  O   HOH     1      -5.165  53.020   2.505  0.00  0.00    +0.000 OA
ENDROOT
TORSDOF 0
REMARK  Name = ../refined-set-2016/3g2z/3g2z_pocket.pdb
REMARK  140 active torsions:
REMARK  status: ('A' for Active; 'I' for Inactive)
REMARK    1  A    between atoms: _1  and  _3
REMARK    2  A    between atoms: _3  and  _4
REMARK    3  A    between atoms: _3  and  _6
REMARK    4  A    between atoms: _6  and  _7
REMARK    5  A    between atoms: _7  and  _8
REMARK    6  A    between atoms: _10  and  _12
REMARK    7  A    between atoms: _12  and  _13
REMARK    8  A    between atoms: _12  and  _15
REMARK    9  A    between atoms: _17  and  _19
REMARK   10  A    between atoms: _19  and  _20
REMARK   11  A    between atoms: _19  and  _22
REMARK   12  A    between atoms: _22  and  _23
REMARK   13  A    between atoms: _25  and  _27
REMARK   14  A    between atoms: _27  and  _28
REMARK   15  A    between atoms: _27  and  _30
REMARK   16  A    between atoms: _30  and  _31
REMARK   17  A    between atoms: _34  and  _36
REMARK   18  A    between atoms: _36  and  _37
REMARK   19  A    between atoms: _36  and  _39
REMARK   20  A    between atoms: _39  and  _40
REMARK   21  A    between atoms: _40  and  _41
REMARK   22  A    between atoms: _41  and  _42
REMARK   23  A    between atoms: _42  and  _43
REMARK   24  A    between atoms: _47  and  _49
REMARK   25  A    between atoms: _49  and  _50
REMARK   26  A    between atoms: _49  and  _52
REMARK   27  A    between atoms: _55  and  _57
REMARK   28  A    between atoms: _57  and  _58
REMARK   29  A    between atoms: _57  and  _60
REMARK   30  A    between atoms: _60  and  _61
REMARK   31  A    between atoms: _66  and  _68
REMARK   32  A    between atoms: _68  and  _69
REMARK   33  A    between atoms: _68  and  _71
REMARK   34  A    between atoms: _71  and  _72
REMARK   35  A    between atoms: _77  and  _78
REMARK   36  A    between atoms: _80  and  _82
REMARK   37  A    between atoms: _82  and  _83
REMARK   38  A    between atoms: _82  and  _85
REMARK   39  A    between atoms: _85  and  _86
REMARK   40  A    between atoms: _92  and  _93
REMARK   41  A    between atoms: _98  and  _100
REMARK   42  A    between atoms: _100  and  _101
REMARK   43  A    between atoms: _104  and  _106
REMARK   44  A    between atoms: _106  and  _107
REMARK   45  A    between atoms: _106  and  _109
REMARK   46  A    between atoms: _109  and  _110
REMARK   47  A    between atoms: _113  and  _115
REMARK   48  A    between atoms: _115  and  _116
REMARK   49  A    between atoms: _115  and  _118
REMARK   50  A    between atoms: _118  and  _119
REMARK   51  A    between atoms: _124  and  _125
REMARK   52  A    between atoms: _127  and  _129
REMARK   53  A    between atoms: _129  and  _130
REMARK   54  A    between atoms: _129  and  _132
REMARK   55  A    between atoms: _132  and  _133
REMARK   56  A    between atoms: _135  and  _137
REMARK   57  A    between atoms: _137  and  _138
REMARK   58  A    between atoms: _137  and  _140
REMARK   59  A    between atoms: _140  and  _141
REMARK   60  A    between atoms: _144  and  _146
REMARK   61  A    between atoms: _146  and  _147
REMARK   62  A    between atoms: _146  and  _149
REMARK   63  A    between atoms: _149  and  _150
REMARK   64  A    between atoms: _155  and  _157
REMARK   65  A    between atoms: _157  and  _158
REMARK   66  A    between atoms: _157  and  _160
REMARK   67  A    between atoms: _160  and  _161
REMARK   68  A    between atoms: _161  and  _162
REMARK   69  A    between atoms: _166  and  _167
REMARK   70  A    between atoms: _172  and  _174
REMARK   71  A    between atoms: _174  and  _175
REMARK   72  A    between atoms: _174  and  _177
REMARK   73  A    between atoms: _177  and  _178
REMARK   74  A    between atoms: _183  and  _185
REMARK   75  A    between atoms: _185  and  _186
REMARK   76  A    between atoms: _185  and  _188
REMARK   77  A    between atoms: _188  and  _189
REMARK   78  A    between atoms: _194  and  _196
REMARK   79  A    between atoms: _196  and  _197
REMARK   80  A    between atoms: _196  and  _199
REMARK   81  A    between atoms: _199  and  _200
REMARK   82  A    between atoms: _203  and  _205
REMARK   83  A    between atoms: _205  and  _206
REMARK   84  A    between atoms: _208  and  _210
REMARK   85  A    between atoms: _210  and  _211
REMARK   86  A    between atoms: _210  and  _213
REMARK   87  A    between atoms: _213  and  _214
REMARK   88  A    between atoms: _216  and  _218
REMARK   89  A    between atoms: _218  and  _219
REMARK   90  A    between atoms: _218  and  _221
REMARK   91  A    between atoms: _221  and  _222
REMARK   92  A    between atoms: _225  and  _227
REMARK   93  A    between atoms: _227  and  _228
REMARK   94  A    between atoms: _227  and  _230
REMARK   95  A    between atoms: _230  and  _231
REMARK   96  A    between atoms: _231  and  _232
REMARK   97  A    between atoms: _232  and  _233
REMARK   98  A    between atoms: _233  and  _234
REMARK   99  A    between atoms: _238  and  _240
REMARK  100  A    between atoms: _240  and  _241
REMARK  101  A    between atoms: _240  and  _243
REMARK  102  A    between atoms: _243  and  _244
REMARK  103  A    between atoms: _247  and  _249
REMARK  104  A    between atoms: _249  and  _250
REMARK  105  A    between atoms: _252  and  _254
REMARK  106  A    between atoms: _254  and  _255
REMARK  107  A    between atoms: _254  and  _257
REMARK  108  A    between atoms: _257  and  _258
REMARK  109  A    between atoms: _260  and  _262
REMARK  110  A    between atoms: _262  and  _263
REMARK  111  A    between atoms: _265  and  _267
REMARK  112  A    between atoms: _267  and  _268
REMARK  113  A    between atoms: _267  and  _270
REMARK  114  A    between atoms: _270  and  _271
REMARK  115  A    between atoms: _274  and  _276
REMARK  116  A    between atoms: _276  and  _277
REMARK  117  A    between atoms: _276  and  _279
REMARK  118  A    between atoms: _279  and  _280
REMARK  119  A    between atoms: _283  and  _285
REMARK  120  A    between atoms: _285  and  _286
REMARK  121  A    between atoms: _285  and  _288
REMARK  122  A    between atoms: _288  and  _289
REMARK  123  A    between atoms: _294  and  _296
REMARK  124  A    between atoms: _296  and  _297
REMARK  125  A    between atoms: _296  and  _299
REMARK  126  A    between atoms: _299  and  _300
REMARK  127  A    between atoms: _303  and  _305
REMARK  128  A    between atoms: _305  and  _306
REMARK  129  A    between atoms: _305  and  _308
REMARK  130  A    between atoms: _308  and  _309
REMARK  131  A    between atoms: _311  and  _313
REMARK  132  A    between atoms: _313  and  _314
REMARK  133  A    between atoms: _313  and  _316
REMARK  134  A    between atoms: _316  and  _317
REMARK  135  A    between atoms: _317  and  _318
REMARK  136  A    between atoms: _318  and  _319
REMARK  137  A    between atoms: _328  and  _330
REMARK  138  A    between atoms: _330  and  _331
REMARK  139  A    between atoms: _330  and  _333
REMARK  140  A    between atoms: _333  and  _334
REMARK                            x       y       z     vdW  Elec       q    Type
REMARK                         _______ _______ _______ _____ _____    ______ ____
ROOT
ATOM      1  O   HOH     1       1.862  51.327  16.580  0.00  0.00    +0.000 OA
ENDROOT
TORSDOF 0
REMARK  Name = ../refined-set-2016/3g2z/3g2z_pocket.pdb
REMARK  140 active torsions:
REMARK  status: ('A' for Active; 'I' for Inactive)
REMARK    1  A    between atoms: _1  and  _3
REMARK    2  A    between atoms: _3  and  _4
REMARK    3  A    between atoms: _3  and  _6
REMARK    4  A    between atoms: _6  and  _7
REMARK    5  A    between atoms: _7  and  _8
REMARK    6  A    between atoms: _10  and  _12
REMARK    7  A    between atoms: _12  and  _13
REMARK    8  A    between atoms: _12  and  _15
REMARK    9  A    between atoms: _17  and  _19
REMARK   10  A    between atoms: _19  and  _20
REMARK   11  A    between atoms: _19  and  _22
REMARK   12  A    between atoms: _22  and  _23
REMARK   13  A    between atoms: _25  and  _27
REMARK   14  A    between atoms: _27  and  _28
REMARK   15  A    between atoms: _27  and  _30
REMARK   16  A    between atoms: _30  and  _31
REMARK   17  A    between atoms: _34  and  _36
REMARK   18  A    between atoms: _36  and  _37
REMARK   19  A    between atoms: _36  and  _39
REMARK   20  A    between atoms: _39  and  _40
REMARK   21  A    between atoms: _40  and  _41
REMARK   22  A    between atoms: _41  and  _42
REMARK   23  A    between atoms: _42  and  _43
REMARK   24  A    between atoms: _47  and  _49
REMARK   25  A    between atoms: _49  and  _50
REMARK   26  A    between atoms: _49  and  _52
REMARK   27  A    between atoms: _55  and  _57
REMARK   28  A    between atoms: _57  and  _58
REMARK   29  A    between atoms: _57  and  _60
REMARK   30  A    between atoms: _60  and  _61
REMARK   31  A    between atoms: _66  and  _68
REMARK   32  A    between atoms: _68  and  _69
REMARK   33  A    between atoms: _68  and  _71
REMARK   34  A    between atoms: _71  and  _72
REMARK   35  A    between atoms: _77  and  _78
REMARK   36  A    between atoms: _80  and  _82
REMARK   37  A    between atoms: _82  and  _83
REMARK   38  A    between atoms: _82  and  _85
REMARK   39  A    between atoms: _85  and  _86
REMARK   40  A    between atoms: _92  and  _93
REMARK   41  A    between atoms: _98  and  _100
REMARK   42  A    between atoms: _100  and  _101
REMARK   43  A    between atoms: _104  and  _106
REMARK   44  A    between atoms: _106  and  _107
REMARK   45  A    between atoms: _106  and  _109
REMARK   46  A    between atoms: _109  and  _110
REMARK   47  A    between atoms: _113  and  _115
REMARK   48  A    between atoms: _115  and  _116
REMARK   49  A    between atoms: _115  and  _118
REMARK   50  A    between atoms: _118  and  _119
REMARK   51  A    between atoms: _124  and  _125
REMARK   52  A    between atoms: _127  and  _129
REMARK   53  A    between atoms: _129  and  _130
REMARK   54  A    between atoms: _129  and  _132
REMARK   55  A    between atoms: _132  and  _133
REMARK   56  A    between atoms: _135  and  _137
REMARK   57  A    between atoms: _137  and  _138
REMARK   58  A    between atoms: _137  and  _140
REMARK   59  A    between atoms: _140  and  _141
REMARK   60  A    between atoms: _144  and  _146
REMARK   61  A    between atoms: _146  and  _147
REMARK   62  A    between atoms: _146  and  _149
REMARK   63  A    between atoms: _149  and  _150
REMARK   64  A    between atoms: _155  and  _157
REMARK   65  A    between atoms: _157  and  _158
REMARK   66  A    between atoms: _157  and  _160
REMARK   67  A    between atoms: _160  and  _161
REMARK   68  A    between atoms: _161  and  _162
REMARK   69  A    between atoms: _166  and  _167
REMARK   70  A    between atoms: _172  and  _174
REMARK   71  A    between atoms: _174  and  _175
REMARK   72  A    between atoms: _174  and  _177
REMARK   73  A    between atoms: _177  and  _178
REMARK   74  A    between atoms: _183  and  _185
REMARK   75  A    between atoms: _185  and  _186
REMARK   76  A    between atoms: _185  and  _188
REMARK   77  A    between atoms: _188  and  _189
REMARK   78  A    between atoms: _194  and  _196
REMARK   79  A    between atoms: _196  and  _197
REMARK   80  A    between atoms: _196  and  _199
REMARK   81  A    between atoms: _199  and  _200
REMARK   82  A    between atoms: _203  and  _205
REMARK   83  A    between atoms: _205  and  _206
REMARK   84  A    between atoms: _208  and  _210
REMARK   85  A    between atoms: _210  and  _211
REMARK   86  A    between atoms: _210  and  _213
REMARK   87  A    between atoms: _213  and  _214
REMARK   88  A    between atoms: _216  and  _218
REMARK   89  A    between atoms: _218  and  _219
REMARK   90  A    between atoms: _218  and  _221
REMARK   91  A    between atoms: _221  and  _222
REMARK   92  A    between atoms: _225  and  _227
REMARK   93  A    between atoms: _227  and  _228
REMARK   94  A    between atoms: _227  and  _230
REMARK   95  A    between atoms: _230  and  _231
REMARK   96  A    between atoms: _231  and  _232
REMARK   97  A    between atoms: _232  and  _233
REMARK   98  A    between atoms: _233  and  _234
REMARK   99  A    between atoms: _238  and  _240
REMARK  100  A    between atoms: _240  and  _241
REMARK  101  A    between atoms: _240  and  _243
REMARK  102  A    between atoms: _243  and  _244
REMARK  103  A    between atoms: _247  and  _249
REMARK  104  A    between atoms: _249  and  _250
REMARK  105  A    between atoms: _252  and  _254
REMARK  106  A    between atoms: _254  and  _255
REMARK  107  A    between atoms: _254  and  _257
REMARK  108  A    between atoms: _257  and  _258
REMARK  109  A    between atoms: _260  and  _262
REMARK  110  A    between atoms: _262  and  _263
REMARK  111  A    between atoms: _265  and  _267
REMARK  112  A    between atoms: _267  and  _268
REMARK  113  A    between atoms: _267  and  _270
REMARK  114  A    between atoms: _270  and  _271
REMARK  115  A    between atoms: _274  and  _276
REMARK  116  A    between atoms: _276  and  _277
REMARK  117  A    between atoms: _276  and  _279
REMARK  118  A    between atoms: _279  and  _280
REMARK  119  A    between atoms: _283  and  _285
REMARK  120  A    between atoms: _285  and  _286
REMARK  121  A    between atoms: _285  and  _288
REMARK  122  A    between atoms: _288  and  _289
REMARK  123  A    between atoms: _294  and  _296
REMARK  124  A    between atoms: _296  and  _297
REMARK  125  A    between atoms: _296  and  _299
REMARK  126  A    between atoms: _299  and  _300
REMARK  127  A    between atoms: _303  and  _305
REMARK  128  A    between atoms: _305  and  _306
REMARK  129  A    between atoms: _305  and  _308
REMARK  130  A    between atoms: _308  and  _309
REMARK  131  A    between atoms: _311  and  _313
REMARK  132  A    between atoms: _313  and  _314
REMARK  133  A    between atoms: _313  and  _316
REMARK  134  A    between atoms: _316  and  _317
REMARK  135  A    between atoms: _317  and  _318
REMARK  136  A    between atoms: _318  and  _319
REMARK  137  A    between atoms: _328  and  _330
REMARK  138  A    between atoms: _330  and  _331
REMARK  139  A    between atoms: _330  and  _333
REMARK  140  A    between atoms: _333  and  _334
REMARK                            x       y       z     vdW  Elec       q    Type
REMARK                         _______ _______ _______ _____ _____    ______ ____
ROOT
ATOM      1  O   HOH     1      -4.185  58.613  18.930  0.00  0.00    +0.000 OA
ENDROOT
TORSDOF 0
REMARK  Name = ../refined-set-2016/3g2z/3g2z_pocket.pdb
REMARK  140 active torsions:
REMARK  status: ('A' for Active; 'I' for Inactive)
REMARK    1  A    between atoms: _1  and  _3
REMARK    2  A    between atoms: _3  and  _4
REMARK    3  A    between atoms: _3  and  _6
REMARK    4  A    between atoms: _6  and  _7
REMARK    5  A    between atoms: _7  and  _8
REMARK    6  A    between atoms: _10  and  _12
REMARK    7  A    between atoms: _12  and  _13
REMARK    8  A    between atoms: _12  and  _15
REMARK    9  A    between atoms: _17  and  _19
REMARK   10  A    between atoms: _19  and  _20
REMARK   11  A    between atoms: _19  and  _22
REMARK   12  A    between atoms: _22  and  _23
REMARK   13  A    between atoms: _25  and  _27
REMARK   14  A    between atoms: _27  and  _28
REMARK   15  A    between atoms: _27  and  _30
REMARK   16  A    between atoms: _30  and  _31
REMARK   17  A    between atoms: _34  and  _36
REMARK   18  A    between atoms: _36  and  _37
REMARK   19  A    between atoms: _36  and  _39
REMARK   20  A    between atoms: _39  and  _40
REMARK   21  A    between atoms: _40  and  _41
REMARK   22  A    between atoms: _41  and  _42
REMARK   23  A    between atoms: _42  and  _43
REMARK   24  A    between atoms: _47  and  _49
REMARK   25  A    between atoms: _49  and  _50
REMARK   26  A    between atoms: _49  and  _52
REMARK   27  A    between atoms: _55  and  _57
REMARK   28  A    between atoms: _57  and  _58
REMARK   29  A    between atoms: _57  and  _60
REMARK   30  A    between atoms: _60  and  _61
REMARK   31  A    between atoms: _66  and  _68
REMARK   32  A    between atoms: _68  and  _69
REMARK   33  A    between atoms: _68  and  _71
REMARK   34  A    between atoms: _71  and  _72
REMARK   35  A    between atoms: _77  and  _78
REMARK   36  A    between atoms: _80  and  _82
REMARK   37  A    between atoms: _82  and  _83
REMARK   38  A    between atoms: _82  and  _85
REMARK   39  A    between atoms: _85  and  _86
REMARK   40  A    between atoms: _92  and  _93
REMARK   41  A    between atoms: _98  and  _100
REMARK   42  A    between atoms: _100  and  _101
REMARK   43  A    between atoms: _104  and  _106
REMARK   44  A    between atoms: _106  and  _107
REMARK   45  A    between atoms: _106  and  _109
REMARK   46  A    between atoms: _109  and  _110
REMARK   47  A    between atoms: _113  and  _115
REMARK   48  A    between atoms: _115  and  _116
REMARK   49  A    between atoms: _115  and  _118
REMARK   50  A    between atoms: _118  and  _119
REMARK   51  A    between atoms: _124  and  _125
REMARK   52  A    between atoms: _127  and  _129
REMARK   53  A    between atoms: _129  and  _130
REMARK   54  A    between atoms: _129  and  _132
REMARK   55  A    between atoms: _132  and  _133
REMARK   56  A    between atoms: _135  and  _137
REMARK   57  A    between atoms: _137  and  _138
REMARK   58  A    between atoms: _137  and  _140
REMARK   59  A    between atoms: _140  and  _141
REMARK   60  A    between atoms: _144  and  _146
REMARK   61  A    between atoms: _146  and  _147
REMARK   62  A    between atoms: _146  and  _149
REMARK   63  A    between atoms: _149  and  _150
REMARK   64  A    between atoms: _155  and  _157
REMARK   65  A    between atoms: _157  and  _158
REMARK   66  A    between atoms: _157  and  _160
REMARK   67  A    between atoms: _160  and  _161
REMARK   68  A    between atoms: _161  and  _162
REMARK   69  A    between atoms: _166  and  _167
REMARK   70  A    between atoms: _172  and  _174
REMARK   71  A    between atoms: _174  and  _175
REMARK   72  A    between atoms: _174  and  _177
REMARK   73  A    between atoms: _177  and  _178
REMARK   74  A    between atoms: _183  and  _185
REMARK   75  A    between atoms: _185  and  _186
REMARK   76  A    between atoms: _185  and  _188
REMARK   77  A    between atoms: _188  and  _189
REMARK   78  A    between atoms: _194  and  _196
REMARK   79  A    between atoms: _196  and  _197
REMARK   80  A    between atoms: _196  and  _199
REMARK   81  A    between atoms: _199  and  _200
REMARK   82  A    between atoms: _203  and  _205
REMARK   83  A    between atoms: _205  and  _206
REMARK   84  A    between atoms: _208  and  _210
REMARK   85  A    between atoms: _210  and  _211
REMARK   86  A    between atoms: _210  and  _213
REMARK   87  A    between atoms: _213  and  _214
REMARK   88  A    between atoms: _216  and  _218
REMARK   89  A    between atoms: _218  and  _219
REMARK   90  A    between atoms: _218  and  _221
REMARK   91  A    between atoms: _221  and  _222
REMARK   92  A    between atoms: _225  and  _227
REMARK   93  A    between atoms: _227  and  _228
REMARK   94  A    between atoms: _227  and  _230
REMARK   95  A    between atoms: _230  and  _231
REMARK   96  A    between atoms: _231  and  _232
REMARK   97  A    between atoms: _232  and  _233
REMARK   98  A    between atoms: _233  and  _234
REMARK   99  A    between atoms: _238  and  _240
REMARK  100  A    between atoms: _240  and  _241
REMARK  101  A    between atoms: _240  and  _243
REMARK  102  A    between atoms: _243  and  _244
REMARK  103  A    between atoms: _247  and  _249
REMARK  104  A    between atoms: _249  and  _250
REMARK  105  A    between atoms: _252  and  _254
REMARK  106  A    between atoms: _254  and  _255
REMARK  107  A    between atoms: _254  and  _257
REMARK  108  A    between atoms: _257  and  _258
REMARK  109  A    between atoms: _260  and  _262
REMARK  110  A    between atoms: _262  and  _263
REMARK  111  A    between atoms: _265  and  _267
REMARK  112  A    between atoms: _267  and  _268
REMARK  113  A    between atoms: _267  and  _270
REMARK  114  A    between atoms: _270  and  _271
REMARK  115  A    between atoms: _274  and  _276
REMARK  116  A    between atoms: _276  and  _277
REMARK  117  A    between atoms: _276  and  _279
REMARK  118  A    between atoms: _279  and  _280
REMARK  119  A    between atoms: _283  and  _285
REMARK  120  A    between atoms: _285  and  _286
REMARK  121  A    between atoms: _285  and  _288
REMARK  122  A    between atoms: _288  and  _289
REMARK  123  A    between atoms: _294  and  _296
REMARK  124  A    between atoms: _296  and  _297
REMARK  125  A    between atoms: _296  and  _299
REMARK  126  A    between atoms: _299  and  _300
REMARK  127  A    between atoms: _303  and  _305
REMARK  128  A    between atoms: _305  and  _306
REMARK  129  A    between atoms: _305  and  _308
REMARK  130  A    between atoms: _308  and  _309
REMARK  131  A    between atoms: _311  and  _313
REMARK  132  A    between atoms: _313  and  _314
REMARK  133  A    between atoms: _313  and  _316
REMARK  134  A    between atoms: _316  and  _317
REMARK  135  A    between atoms: _317  and  _318
REMARK  136  A    between atoms: _318  and  _319
REMARK  137  A    between atoms: _328  and  _330
REMARK  138  A    between atoms: _330  and  _331
REMARK  139  A    between atoms: _330  and  _333
REMARK  140  A    between atoms: _333  and  _334
REMARK                            x       y       z     vdW  Elec       q    Type
REMARK                         _______ _______ _______ _____ _____    ______ ____
ROOT
ATOM      1  O   HOH     1      -3.842  56.550  13.480  0.00  0.00    +0.000 OA
ENDROOT
TORSDOF 0
REMARK  Name = ../refined-set-2016/3g2z/3g2z_pocket.pdb
REMARK  140 active torsions:
REMARK  status: ('A' for Active; 'I' for Inactive)
REMARK    1  A    between atoms: _1  and  _3
REMARK    2  A    between atoms: _3  and  _4
REMARK    3  A    between atoms: _3  and  _6
REMARK    4  A    between atoms: _6  and  _7
REMARK    5  A    between atoms: _7  and  _8
REMARK    6  A    between atoms: _10  and  _12
REMARK    7  A    between atoms: _12  and  _13
REMARK    8  A    between atoms: _12  and  _15
REMARK    9  A    between atoms: _17  and  _19
REMARK   10  A    between atoms: _19  and  _20
REMARK   11  A    between atoms: _19  and  _22
REMARK   12  A    between atoms: _22  and  _23
REMARK   13  A    between atoms: _25  and  _27
REMARK   14  A    between atoms: _27  and  _28
REMARK   15  A    between atoms: _27  and  _30
REMARK   16  A    between atoms: _30  and  _31
REMARK   17  A    between atoms: _34  and  _36
REMARK   18  A    between atoms: _36  and  _37
REMARK   19  A    between atoms: _36  and  _39
REMARK   20  A    between atoms: _39  and  _40
REMARK   21  A    between atoms: _40  and  _41
REMARK   22  A    between atoms: _41  and  _42
REMARK   23  A    between atoms: _42  and  _43
REMARK   24  A    between atoms: _47  and  _49
REMARK   25  A    between atoms: _49  and  _50
REMARK   26  A    between atoms: _49  and  _52
REMARK   27  A    between atoms: _55  and  _57
REMARK   28  A    between atoms: _57  and  _58
REMARK   29  A    between atoms: _57  and  _60
REMARK   30  A    between atoms: _60  and  _61
REMARK   31  A    between atoms: _66  and  _68
REMARK   32  A    between atoms: _68  and  _69
REMARK   33  A    between atoms: _68  and  _71
REMARK   34  A    between atoms: _71  and  _72
REMARK   35  A    between atoms: _77  and  _78
REMARK   36  A    between atoms: _80  and  _82
REMARK   37  A    between atoms: _82  and  _83
REMARK   38  A    between atoms: _82  and  _85
REMARK   39  A    between atoms: _85  and  _86
REMARK   40  A    between atoms: _92  and  _93
REMARK   41  A    between atoms: _98  and  _100
REMARK   42  A    between atoms: _100  and  _101
REMARK   43  A    between atoms: _104  and  _106
REMARK   44  A    between atoms: _106  and  _107
REMARK   45  A    between atoms: _106  and  _109
REMARK   46  A    between atoms: _109  and  _110
REMARK   47  A    between atoms: _113  and  _115
REMARK   48  A    between atoms: _115  and  _116
REMARK   49  A    between atoms: _115  and  _118
REMARK   50  A    between atoms: _118  and  _119
REMARK   51  A    between atoms: _124  and  _125
REMARK   52  A    between atoms: _127  and  _129
REMARK   53  A    between atoms: _129  and  _130
REMARK   54  A    between atoms: _129  and  _132
REMARK   55  A    between atoms: _132  and  _133
REMARK   56  A    between atoms: _135  and  _137
REMARK   57  A    between atoms: _137  and  _138
REMARK   58  A    between atoms: _137  and  _140
REMARK   59  A    between atoms: _140  and  _141
REMARK   60  A    between atoms: _144  and  _146
REMARK   61  A    between atoms: _146  and  _147
REMARK   62  A    between atoms: _146  and  _149
REMARK   63  A    between atoms: _149  and  _150
REMARK   64  A    between atoms: _155  and  _157
REMARK   65  A    between atoms: _157  and  _158
REMARK   66  A    between atoms: _157  and  _160
REMARK   67  A    between atoms: _160  and  _161
REMARK   68  A    between atoms: _161  and  _162
REMARK   69  A    between atoms: _166  and  _167
REMARK   70  A    between atoms: _172  and  _174
REMARK   71  A    between atoms: _174  and  _175
REMARK   72  A    between atoms: _174  and  _177
REMARK   73  A    between atoms: _177  and  _178
REMARK   74  A    between atoms: _183  and  _185
REMARK   75  A    between atoms: _185  and  _186
REMARK   76  A    between atoms: _185  and  _188
REMARK   77  A    between atoms: _188  and  _189
REMARK   78  A    between atoms: _194  and  _196
REMARK   79  A    between atoms: _196  and  _197
REMARK   80  A    between atoms: _196  and  _199
REMARK   81  A    between atoms: _199  and  _200
REMARK   82  A    between atoms: _203  and  _205
REMARK   83  A    between atoms: _205  and  _206
REMARK   84  A    between atoms: _208  and  _210
REMARK   85  A    between atoms: _210  and  _211
REMARK   86  A    between atoms: _210  and  _213
REMARK   87  A    between atoms: _213  and  _214
REMARK   88  A    between atoms: _216  and  _218
REMARK   89  A    between atoms: _218  and  _219
REMARK   90  A    between atoms: _218  and  _221
REMARK   91  A    between atoms: _221  and  _222
REMARK   92  A    between atoms: _225  and  _227
REMARK   93  A    between atoms: _227  and  _228
REMARK   94  A    between atoms: _227  and  _230
REMARK   95  A    between atoms: _230  and  _231
REMARK   96  A    between atoms: _231  and  _232
REMARK   97  A    between atoms: _232  and  _233
REMARK   98  A    between atoms: _233  and  _234
REMARK   99  A    between atoms: _238  and  _240
REMARK  100  A    between atoms: _240  and  _241
REMARK  101  A    between atoms: _240  and  _243
REMARK  102  A    between atoms: _243  and  _244
REMARK  103  A    between atoms: _247  and  _249
REMARK  104  A    between atoms: _249  and  _250
REMARK  105  A    between atoms: _252  and  _254
REMARK  106  A    between atoms: _254  and  _255
REMARK  107  A    between atoms: _254  and  _257
REMARK  108  A    between atoms: _257  and  _258
REMARK  109  A    between atoms: _260  and  _262
REMARK  110  A    between atoms: _262  and  _263
REMARK  111  A    between atoms: _265  and  _267
REMARK  112  A    between atoms: _267  and  _268
REMARK  113  A    between atoms: _267  and  _270
REMARK  114  A    between atoms: _270  and  _271
REMARK  115  A    between atoms: _274  and  _276
REMARK  116  A    between atoms: _276  and  _277
REMARK  117  A    between atoms: _276  and  _279
REMARK  118  A    between atoms: _279  and  _280
REMARK  119  A    between atoms: _283  and  _285
REMARK  120  A    between atoms: _285  and  _286
REMARK  121  A    between atoms: _285  and  _288
REMARK  122  A    between atoms: _288  and  _289
REMARK  123  A    between atoms: _294  and  _296
REMARK  124  A    between atoms: _296  and  _297
REMARK  125  A    between atoms: _296  and  _299
REMARK  126  A    between atoms: _299  and  _300
REMARK  127  A    between atoms: _303  and  _305
REMARK  128  A    between atoms: _305  and  _306
REMARK  129  A    between atoms: _305  and  _308
REMARK  130  A    between atoms: _308  and  _309
REMARK  131  A    between atoms: _311  and  _313
REMARK  132  A    between atoms: _313  and  _314
REMARK  133  A    between atoms: _313  and  _316
REMARK  134  A    between atoms: _316  and  _317
REMARK  135  A    between atoms: _317  and  _318
REMARK  136  A    between atoms: _318  and  _319
REMARK  137  A    between atoms: _328  and  _330
REMARK  138  A    between atoms: _330  and  _331
REMARK  139  A    between atoms: _330  and  _333
REMARK  140  A    between atoms: _333  and  _334
REMARK                            x       y       z     vdW  Elec       q    Type
REMARK                         _______ _______ _______ _____ _____    ______ ____
ROOT
ATOM      1  O   HOH     1     -14.488  54.202  11.038  0.00  0.00    +0.000 OA
ENDROOT
TORSDOF 0
REMARK  Name = ../refined-set-2016/3g2z/3g2z_pocket.pdb
REMARK  140 active torsions:
REMARK  status: ('A' for Active; 'I' for Inactive)
REMARK    1  A    between atoms: _1  and  _3
REMARK    2  A    between atoms: _3  and  _4
REMARK    3  A    between atoms: _3  and  _6
REMARK    4  A    between atoms: _6  and  _7
REMARK    5  A    between atoms: _7  and  _8
REMARK    6  A    between atoms: _10  and  _12
REMARK    7  A    between atoms: _12  and  _13
REMARK    8  A    between atoms: _12  and  _15
REMARK    9  A    between atoms: _17  and  _19
REMARK   10  A    between atoms: _19  and  _20
REMARK   11  A    between atoms: _19  and  _22
REMARK   12  A    between atoms: _22  and  _23
REMARK   13  A    between atoms: _25  and  _27
REMARK   14  A    between atoms: _27  and  _28
REMARK   15  A    between atoms: _27  and  _30
REMARK   16  A    between atoms: _30  and  _31
REMARK   17  A    between atoms: _34  and  _36
REMARK   18  A    between atoms: _36  and  _37
REMARK   19  A    between atoms: _36  and  _39
REMARK   20  A    between atoms: _39  and  _40
REMARK   21  A    between atoms: _40  and  _41
REMARK   22  A    between atoms: _41  and  _42
REMARK   23  A    between atoms: _42  and  _43
REMARK   24  A    between atoms: _47  and  _49
REMARK   25  A    between atoms: _49  and  _50
REMARK   26  A    between atoms: _49  and  _52
REMARK   27  A    between atoms: _55  and  _57
REMARK   28  A    between atoms: _57  and  _58
REMARK   29  A    between atoms: _57  and  _60
REMARK   30  A    between atoms: _60  and  _61
REMARK   31  A    between atoms: _66  and  _68
REMARK   32  A    between atoms: _68  and  _69
REMARK   33  A    between atoms: _68  and  _71
REMARK   34  A    between atoms: _71  and  _72
REMARK   35  A    between atoms: _77  and  _78
REMARK   36  A    between atoms: _80  and  _82
REMARK   37  A    between atoms: _82  and  _83
REMARK   38  A    between atoms: _82  and  _85
REMARK   39  A    between atoms: _85  and  _86
REMARK   40  A    between atoms: _92  and  _93
REMARK   41  A    between atoms: _98  and  _100
REMARK   42  A    between atoms: _100  and  _101
REMARK   43  A    between atoms: _104  and  _106
REMARK   44  A    between atoms: _106  and  _107
REMARK   45  A    between atoms: _106  and  _109
REMARK   46  A    between atoms: _109  and  _110
REMARK   47  A    between atoms: _113  and  _115
REMARK   48  A    between atoms: _115  and  _116
REMARK   49  A    between atoms: _115  and  _118
REMARK   50  A    between atoms: _118  and  _119
REMARK   51  A    between atoms: _124  and  _125
REMARK   52  A    between atoms: _127  and  _129
REMARK   53  A    between atoms: _129  and  _130
REMARK   54  A    between atoms: _129  and  _132
REMARK   55  A    between atoms: _132  and  _133
REMARK   56  A    between atoms: _135  and  _137
REMARK   57  A    between atoms: _137  and  _138
REMARK   58  A    between atoms: _137  and  _140
REMARK   59  A    between atoms: _140  and  _141
REMARK   60  A    between atoms: _144  and  _146
REMARK   61  A    between atoms: _146  and  _147
REMARK   62  A    between atoms: _146  and  _149
REMARK   63  A    between atoms: _149  and  _150
REMARK   64  A    between atoms: _155  and  _157
REMARK   65  A    between atoms: _157  and  _158
REMARK   66  A    between atoms: _157  and  _160
REMARK   67  A    between atoms: _160  and  _161
REMARK   68  A    between atoms: _161  and  _162
REMARK   69  A    between atoms: _166  and  _167
REMARK   70  A    between atoms: _172  and  _174
REMARK   71  A    between atoms: _174  and  _175
REMARK   72  A    between atoms: _174  and  _177
REMARK   73  A    between atoms: _177  and  _178
REMARK   74  A    between atoms: _183  and  _185
REMARK   75  A    between atoms: _185  and  _186
REMARK   76  A    between atoms: _185  and  _188
REMARK   77  A    between atoms: _188  and  _189
REMARK   78  A    between atoms: _194  and  _196
REMARK   79  A    between atoms: _196  and  _197
REMARK   80  A    between atoms: _196  and  _199
REMARK   81  A    between atoms: _199  and  _200
REMARK   82  A    between atoms: _203  and  _205
REMARK   83  A    between atoms: _205  and  _206
REMARK   84  A    between atoms: _208  and  _210
REMARK   85  A    between atoms: _210  and  _211
REMARK   86  A    between atoms: _210  and  _213
REMARK   87  A    between atoms: _213  and  _214
REMARK   88  A    between atoms: _216  and  _218
REMARK   89  A    between atoms: _218  and  _219
REMARK   90  A    between atoms: _218  and  _221
REMARK   91  A    between atoms: _221  and  _222
REMARK   92  A    between atoms: _225  and  _227
REMARK   93  A    between atoms: _227  and  _228
REMARK   94  A    between atoms: _227  and  _230
REMARK   95  A    between atoms: _230  and  _231
REMARK   96  A    between atoms: _231  and  _232
REMARK   97  A    between atoms: _232  and  _233
REMARK   98  A    between atoms: _233  and  _234
REMARK   99  A    between atoms: _238  and  _240
REMARK  100  A    between atoms: _240  and  _241
REMARK  101  A    between atoms: _240  and  _243
REMARK  102  A    between atoms: _243  and  _244
REMARK  103  A    between atoms: _247  and  _249
REMARK  104  A    between atoms: _249  and  _250
REMARK  105  A    between atoms: _252  and  _254
REMARK  106  A    between atoms: _254  and  _255
REMARK  107  A    between atoms: _254  and  _257
REMARK  108  A    between atoms: _257  and  _258
REMARK  109  A    between atoms: _260  and  _262
REMARK  110  A    between atoms: _262  and  _263
REMARK  111  A    between atoms: _265  and  _267
REMARK  112  A    between atoms: _267  and  _268
REMARK  113  A    between atoms: _267  and  _270
REMARK  114  A    between atoms: _270  and  _271
REMARK  115  A    between atoms: _274  and  _276
REMARK  116  A    between atoms: _276  and  _277
REMARK  117  A    between atoms: _276  and  _279
REMARK  118  A    between atoms: _279  and  _280
REMARK  119  A    between atoms: _283  and  _285
REMARK  120  A    between atoms: _285  and  _286
REMARK  121  A    between atoms: _285  and  _288
REMARK  122  A    between atoms: _288  and  _289
REMARK  123  A    between atoms: _294  and  _296
REMARK  124  A    between atoms: _296  and  _297
REMARK  125  A    between atoms: _296  and  _299
REMARK  126  A    between atoms: _299  and  _300
REMARK  127  A    between atoms: _303  and  _305
REMARK  128  A    between atoms: _305  and  _306
REMARK  129  A    between atoms: _305  and  _308
REMARK  130  A    between atoms: _308  and  _309
REMARK  131  A    between atoms: _311  and  _313
REMARK  132  A    between atoms: _313  and  _314
REMARK  133  A    between atoms: _313  and  _316
REMARK  134  A    between atoms: _316  and  _317
REMARK  135  A    between atoms: _317  and  _318
REMARK  136  A    between atoms: _318  and  _319
REMARK  137  A    between atoms: _328  and  _330
REMARK  138  A    between atoms: _330  and  _331
REMARK  139  A    between atoms: _330  and  _333
REMARK  140  A    between atoms: _333  and  _334
REMARK                            x       y       z     vdW  Elec       q    Type
REMARK                         _______ _______ _______ _____ _____    ______ ____
ROOT
ATOM      1  O   HOH     1      -5.457  57.539  15.747  0.00  0.00    +0.000 OA
ENDROOT
TORSDOF 0
REMARK  Name = ../refined-set-2016/3g2z/3g2z_pocket.pdb
REMARK  140 active torsions:
REMARK  status: ('A' for Active; 'I' for Inactive)
REMARK    1  A    between atoms: _1  and  _3
REMARK    2  A    between atoms: _3  and  _4
REMARK    3  A    between atoms: _3  and  _6
REMARK    4  A    between atoms: _6  and  _7
REMARK    5  A    between atoms: _7  and  _8
REMARK    6  A    between atoms: _10  and  _12
REMARK    7  A    between atoms: _12  and  _13
REMARK    8  A    between atoms: _12  and  _15
REMARK    9  A    between atoms: _17  and  _19
REMARK   10  A    between atoms: _19  and  _20
REMARK   11  A    between atoms: _19  and  _22
REMARK   12  A    between atoms: _22  and  _23
REMARK   13  A    between atoms: _25  and  _27
REMARK   14  A    between atoms: _27  and  _28
REMARK   15  A    between atoms: _27  and  _30
REMARK   16  A    between atoms: _30  and  _31
REMARK   17  A    between atoms: _34  and  _36
REMARK   18  A    between atoms: _36  and  _37
REMARK   19  A    between atoms: _36  and  _39
REMARK   20  A    between atoms: _39  and  _40
REMARK   21  A    between atoms: _40  and  _41
REMARK   22  A    between atoms: _41  and  _42
REMARK   23  A    between atoms: _42  and  _43
REMARK   24  A    between atoms: _47  and  _49
REMARK   25  A    between atoms: _49  and  _50
REMARK   26  A    between atoms: _49  and  _52
REMARK   27  A    between atoms: _55  and  _57
REMARK   28  A    between atoms: _57  and  _58
REMARK   29  A    between atoms: _57  and  _60
REMARK   30  A    between atoms: _60  and  _61
REMARK   31  A    between atoms: _66  and  _68
REMARK   32  A    between atoms: _68  and  _69
REMARK   33  A    between atoms: _68  and  _71
REMARK   34  A    between atoms: _71  and  _72
REMARK   35  A    between atoms: _77  and  _78
REMARK   36  A    between atoms: _80  and  _82
REMARK   37  A    between atoms: _82  and  _83
REMARK   38  A    between atoms: _82  and  _85
REMARK   39  A    between atoms: _85  and  _86
REMARK   40  A    between atoms: _92  and  _93
REMARK   41  A    between atoms: _98  and  _100
REMARK   42  A    between atoms: _100  and  _101
REMARK   43  A    between atoms: _104  and  _106
REMARK   44  A    between atoms: _106  and  _107
REMARK   45  A    between atoms: _106  and  _109
REMARK   46  A    between atoms: _109  and  _110
REMARK   47  A    between atoms: _113  and  _115
REMARK   48  A    between atoms: _115  and  _116
REMARK   49  A    between atoms: _115  and  _118
REMARK   50  A    between atoms: _118  and  _119
REMARK   51  A    between atoms: _124  and  _125
REMARK   52  A    between atoms: _127  and  _129
REMARK   53  A    between atoms: _129  and  _130
REMARK   54  A    between atoms: _129  and  _132
REMARK   55  A    between atoms: _132  and  _133
REMARK   56  A    between atoms: _135  and  _137
REMARK   57  A    between atoms: _137  and  _138
REMARK   58  A    between atoms: _137  and  _140
REMARK   59  A    between atoms: _140  and  _141
REMARK   60  A    between atoms: _144  and  _146
REMARK   61  A    between atoms: _146  and  _147
REMARK   62  A    between atoms: _146  and  _149
REMARK   63  A    between atoms: _149  and  _150
REMARK   64  A    between atoms: _155  and  _157
REMARK   65  A    between atoms: _157  and  _158
REMARK   66  A    between atoms: _157  and  _160
REMARK   67  A    between atoms: _160  and  _161
REMARK   68  A    between atoms: _161  and  _162
REMARK   69  A    between atoms: _166  and  _167
REMARK   70  A    between atoms: _172  and  _174
REMARK   71  A    between atoms: _174  and  _175
REMARK   72  A    between atoms: _174  and  _177
REMARK   73  A    between atoms: _177  and  _178
REMARK   74  A    between atoms: _183  and  _185
REMARK   75  A    between atoms: _185  and  _186
REMARK   76  A    between atoms: _185  and  _188
REMARK   77  A    between atoms: _188  and  _189
REMARK   78  A    between atoms: _194  and  _196
REMARK   79  A    between atoms: _196  and  _197
REMARK   80  A    between atoms: _196  and  _199
REMARK   81  A    between atoms: _199  and  _200
REMARK   82  A    between atoms: _203  and  _205
REMARK   83  A    between atoms: _205  and  _206
REMARK   84  A    between atoms: _208  and  _210
REMARK   85  A    between atoms: _210  and  _211
REMARK   86  A    between atoms: _210  and  _213
REMARK   87  A    between atoms: _213  and  _214
REMARK   88  A    between atoms: _216  and  _218
REMARK   89  A    between atoms: _218  and  _219
REMARK   90  A    between atoms: _218  and  _221
REMARK   91  A    between atoms: _221  and  _222
REMARK   92  A    between atoms: _225  and  _227
REMARK   93  A    between atoms: _227  and  _228
REMARK   94  A    between atoms: _227  and  _230
REMARK   95  A    between atoms: _230  and  _231
REMARK   96  A    between atoms: _231  and  _232
REMARK   97  A    between atoms: _232  and  _233
REMARK   98  A    between atoms: _233  and  _234
REMARK   99  A    between atoms: _238  and  _240
REMARK  100  A    between atoms: _240  and  _241
REMARK  101  A    between atoms: _240  and  _243
REMARK  102  A    between atoms: _243  and  _244
REMARK  103  A    between atoms: _247  and  _249
REMARK  104  A    between atoms: _249  and  _250
REMARK  105  A    between atoms: _252  and  _254
REMARK  106  A    between atoms: _254  and  _255
REMARK  107  A    between atoms: _254  and  _257
REMARK  108  A    between atoms: _257  and  _258
REMARK  109  A    between atoms: _260  and  _262
REMARK  110  A    between atoms: _262  and  _263
REMARK  111  A    between atoms: _265  and  _267
REMARK  112  A    between atoms: _267  and  _268
REMARK  113  A    between atoms: _267  and  _270
REMARK  114  A    between atoms: _270  and  _271
REMARK  115  A    between atoms: _274  and  _276
REMARK  116  A    between atoms: _276  and  _277
REMARK  117  A    between atoms: _276  and  _279
REMARK  118  A    between atoms: _279  and  _280
REMARK  119  A    between atoms: _283  and  _285
REMARK  120  A    between atoms: _285  and  _286
REMARK  121  A    between atoms: _285  and  _288
REMARK  122  A    between atoms: _288  and  _289
REMARK  123  A    between atoms: _294  and  _296
REMARK  124  A    between atoms: _296  and  _297
REMARK  125  A    between atoms: _296  and  _299
REMARK  126  A    between atoms: _299  and  _300
REMARK  127  A    between atoms: _303  and  _305
REMARK  128  A    between atoms: _305  and  _306
REMARK  129  A    between atoms: _305  and  _308
REMARK  130  A    between atoms: _308  and  _309
REMARK  131  A    between atoms: _311  and  _313
REMARK  132  A    between atoms: _313  and  _314
REMARK  133  A    between atoms: _313  and  _316
REMARK  134  A    between atoms: _316  and  _317
REMARK  135  A    between atoms: _317  and  _318
REMARK  136  A    between atoms: _318  and  _319
REMARK  137  A    between atoms: _328  and  _330
REMARK  138  A    between atoms: _330  and  _331
REMARK  139  A    between atoms: _330  and  _333
REMARK  140  A    between atoms: _333  and  _334
REMARK                            x       y       z     vdW  Elec       q    Type
REMARK                         _______ _______ _______ _____ _____    ______ ____
ROOT
ATOM      1  O   HOH     1      -7.555  56.695  11.735  0.00  0.00    +0.000 OA
ENDROOT
TORSDOF 0
REMARK  Name = ../refined-set-2016/3g2z/3g2z_pocket.pdb
REMARK  140 active torsions:
REMARK  status: ('A' for Active; 'I' for Inactive)
REMARK    1  A    between atoms: _1  and  _3
REMARK    2  A    between atoms: _3  and  _4
REMARK    3  A    between atoms: _3  and  _6
REMARK    4  A    between atoms: _6  and  _7
REMARK    5  A    between atoms: _7  and  _8
REMARK    6  A    between atoms: _10  and  _12
REMARK    7  A    between atoms: _12  and  _13
REMARK    8  A    between atoms: _12  and  _15
REMARK    9  A    between atoms: _17  and  _19
REMARK   10  A    between atoms: _19  and  _20
REMARK   11  A    between atoms: _19  and  _22
REMARK   12  A    between atoms: _22  and  _23
REMARK   13  A    between atoms: _25  and  _27
REMARK   14  A    between atoms: _27  and  _28
REMARK   15  A    between atoms: _27  and  _30
REMARK   16  A    between atoms: _30  and  _31
REMARK   17  A    between atoms: _34  and  _36
REMARK   18  A    between atoms: _36  and  _37
REMARK   19  A    between atoms: _36  and  _39
REMARK   20  A    between atoms: _39  and  _40
REMARK   21  A    between atoms: _40  and  _41
REMARK   22  A    between atoms: _41  and  _42
REMARK   23  A    between atoms: _42  and  _43
REMARK   24  A    between atoms: _47  and  _49
REMARK   25  A    between atoms: _49  and  _50
REMARK   26  A    between atoms: _49  and  _52
REMARK   27  A    between atoms: _55  and  _57
REMARK   28  A    between atoms: _57  and  _58
REMARK   29  A    between atoms: _57  and  _60
REMARK   30  A    between atoms: _60  and  _61
REMARK   31  A    between atoms: _66  and  _68
REMARK   32  A    between atoms: _68  and  _69
REMARK   33  A    between atoms: _68  and  _71
REMARK   34  A    between atoms: _71  and  _72
REMARK   35  A    between atoms: _77  and  _78
REMARK   36  A    between atoms: _80  and  _82
REMARK   37  A    between atoms: _82  and  _83
REMARK   38  A    between atoms: _82  and  _85
REMARK   39  A    between atoms: _85  and  _86
REMARK   40  A    between atoms: _92  and  _93
REMARK   41  A    between atoms: _98  and  _100
REMARK   42  A    between atoms: _100  and  _101
REMARK   43  A    between atoms: _104  and  _106
REMARK   44  A    between atoms: _106  and  _107
REMARK   45  A    between atoms: _106  and  _109
REMARK   46  A    between atoms: _109  and  _110
REMARK   47  A    between atoms: _113  and  _115
REMARK   48  A    between atoms: _115  and  _116
REMARK   49  A    between atoms: _115  and  _118
REMARK   50  A    between atoms: _118  and  _119
REMARK   51  A    between atoms: _124  and  _125
REMARK   52  A    between atoms: _127  and  _129
REMARK   53  A    between atoms: _129  and  _130
REMARK   54  A    between atoms: _129  and  _132
REMARK   55  A    between atoms: _132  and  _133
REMARK   56  A    between atoms: _135  and  _137
REMARK   57  A    between atoms: _137  and  _138
REMARK   58  A    between atoms: _137  and  _140
REMARK   59  A    between atoms: _140  and  _141
REMARK   60  A    between atoms: _144  and  _146
REMARK   61  A    between atoms: _146  and  _147
REMARK   62  A    between atoms: _146  and  _149
REMARK   63  A    between atoms: _149  and  _150
REMARK   64  A    between atoms: _155  and  _157
REMARK   65  A    between atoms: _157  and  _158
REMARK   66  A    between atoms: _157  and  _160
REMARK   67  A    between atoms: _160  and  _161
REMARK   68  A    between atoms: _161  and  _162
REMARK   69  A    between atoms: _166  and  _167
REMARK   70  A    between atoms: _172  and  _174
REMARK   71  A    between atoms: _174  and  _175
REMARK   72  A    between atoms: _174  and  _177
REMARK   73  A    between atoms: _177  and  _178
REMARK   74  A    between atoms: _183  and  _185
REMARK   75  A    between atoms: _185  and  _186
REMARK   76  A    between atoms: _185  and  _188
REMARK   77  A    between atoms: _188  and  _189
REMARK   78  A    between atoms: _194  and  _196
REMARK   79  A    between atoms: _196  and  _197
REMARK   80  A    between atoms: _196  and  _199
REMARK   81  A    between atoms: _199  and  _200
REMARK   82  A    between atoms: _203  and  _205
REMARK   83  A    between atoms: _205  and  _206
REMARK   84  A    between atoms: _208  and  _210
REMARK   85  A    between atoms: _210  and  _211
REMARK   86  A    between atoms: _210  and  _213
REMARK   87  A    between atoms: _213  and  _214
REMARK   88  A    between atoms: _216  and  _218
REMARK   89  A    between atoms: _218  and  _219
REMARK   90  A    between atoms: _218  and  _221
REMARK   91  A    between atoms: _221  and  _222
REMARK   92  A    between atoms: _225  and  _227
REMARK   93  A    between atoms: _227  and  _228
REMARK   94  A    between atoms: _227  and  _230
REMARK   95  A    between atoms: _230  and  _231
REMARK   96  A    between atoms: _231  and  _232
REMARK   97  A    between atoms: _232  and  _233
REMARK   98  A    between atoms: _233  and  _234
REMARK   99  A    between atoms: _238  and  _240
REMARK  100  A    between atoms: _240  and  _241
REMARK  101  A    between atoms: _240  and  _243
REMARK  102  A    between atoms: _243  and  _244
REMARK  103  A    between atoms: _247  and  _249
REMARK  104  A    between atoms: _249  and  _250
REMARK  105  A    between atoms: _252  and  _254
REMARK  106  A    between atoms: _254  and  _255
REMARK  107  A    between atoms: _254  and  _257
REMARK  108  A    between atoms: _257  and  _258
REMARK  109  A    between atoms: _260  and  _262
REMARK  110  A    between atoms: _262  and  _263
REMARK  111  A    between atoms: _265  and  _267
REMARK  112  A    between atoms: _267  and  _268
REMARK  113  A    between atoms: _267  and  _270
REMARK  114  A    between atoms: _270  and  _271
REMARK  115  A    between atoms: _274  and  _276
REMARK  116  A    between atoms: _276  and  _277
REMARK  117  A    between atoms: _276  and  _279
REMARK  118  A    between atoms: _279  and  _280
REMARK  119  A    between atoms: _283  and  _285
REMARK  120  A    between atoms: _285  and  _286
REMARK  121  A    between atoms: _285  and  _288
REMARK  122  A    between atoms: _288  and  _289
REMARK  123  A    between atoms: _294  and  _296
REMARK  124  A    between atoms: _296  and  _297
REMARK  125  A    between atoms: _296  and  _299
REMARK  126  A    between atoms: _299  and  _300
REMARK  127  A    between atoms: _303  and  _305
REMARK  128  A    between atoms: _305  and  _306
REMARK  129  A    between atoms: _305  and  _308
REMARK  130  A    between atoms: _308  and  _309
REMARK  131  A    between atoms: _311  and  _313
REMARK  132  A    between atoms: _313  and  _314
REMARK  133  A    between atoms: _313  and  _316
REMARK  134  A    between atoms: _316  and  _317
REMARK  135  A    between atoms: _317  and  _318
REMARK  136  A    between atoms: _318  and  _319
REMARK  137  A    between atoms: _328  and  _330
REMARK  138  A    between atoms: _330  and  _331
REMARK  139  A    between atoms: _330  and  _333
REMARK  140  A    between atoms: _333  and  _334
REMARK                            x       y       z     vdW  Elec       q    Type
REMARK                         _______ _______ _______ _____ _____    ______ ____
ROOT
ATOM      1  O   HOH     1     -11.109  46.350  15.845  0.00  0.00    +0.000 OA
ENDROOT
TORSDOF 0
REMARK  Name = ../refined-set-2016/3g2z/3g2z_pocket.pdb
REMARK  140 active torsions:
REMARK  status: ('A' for Active; 'I' for Inactive)
REMARK    1  A    between atoms: _1  and  _3
REMARK    2  A    between atoms: _3  and  _4
REMARK    3  A    between atoms: _3  and  _6
REMARK    4  A    between atoms: _6  and  _7
REMARK    5  A    between atoms: _7  and  _8
REMARK    6  A    between atoms: _10  and  _12
REMARK    7  A    between atoms: _12  and  _13
REMARK    8  A    between atoms: _12  and  _15
REMARK    9  A    between atoms: _17  and  _19
REMARK   10  A    between atoms: _19  and  _20
REMARK   11  A    between atoms: _19  and  _22
REMARK   12  A    between atoms: _22  and  _23
REMARK   13  A    between atoms: _25  and  _27
REMARK   14  A    between atoms: _27  and  _28
REMARK   15  A    between atoms: _27  and  _30
REMARK   16  A    between atoms: _30  and  _31
REMARK   17  A    between atoms: _34  and  _36
REMARK   18  A    between atoms: _36  and  _37
REMARK   19  A    between atoms: _36  and  _39
REMARK   20  A    between atoms: _39  and  _40
REMARK   21  A    between atoms: _40  and  _41
REMARK   22  A    between atoms: _41  and  _42
REMARK   23  A    between atoms: _42  and  _43
REMARK   24  A    between atoms: _47  and  _49
REMARK   25  A    between atoms: _49  and  _50
REMARK   26  A    between atoms: _49  and  _52
REMARK   27  A    between atoms: _55  and  _57
REMARK   28  A    between atoms: _57  and  _58
REMARK   29  A    between atoms: _57  and  _60
REMARK   30  A    between atoms: _60  and  _61
REMARK   31  A    between atoms: _66  and  _68
REMARK   32  A    between atoms: _68  and  _69
REMARK   33  A    between atoms: _68  and  _71
REMARK   34  A    between atoms: _71  and  _72
REMARK   35  A    between atoms: _77  and  _78
REMARK   36  A    between atoms: _80  and  _82
REMARK   37  A    between atoms: _82  and  _83
REMARK   38  A    between atoms: _82  and  _85
REMARK   39  A    between atoms: _85  and  _86
REMARK   40  A    between atoms: _92  and  _93
REMARK   41  A    between atoms: _98  and  _100
REMARK   42  A    between atoms: _100  and  _101
REMARK   43  A    between atoms: _104  and  _106
REMARK   44  A    between atoms: _106  and  _107
REMARK   45  A    between atoms: _106  and  _109
REMARK   46  A    between atoms: _109  and  _110
REMARK   47  A    between atoms: _113  and  _115
REMARK   48  A    between atoms: _115  and  _116
REMARK   49  A    between atoms: _115  and  _118
REMARK   50  A    between atoms: _118  and  _119
REMARK   51  A    between atoms: _124  and  _125
REMARK   52  A    between atoms: _127  and  _129
REMARK   53  A    between atoms: _129  and  _130
REMARK   54  A    between atoms: _129  and  _132
REMARK   55  A    between atoms: _132  and  _133
REMARK   56  A    between atoms: _135  and  _137
REMARK   57  A    between atoms: _137  and  _138
REMARK   58  A    between atoms: _137  and  _140
REMARK   59  A    between atoms: _140  and  _141
REMARK   60  A    between atoms: _144  and  _146
REMARK   61  A    between atoms: _146  and  _147
REMARK   62  A    between atoms: _146  and  _149
REMARK   63  A    between atoms: _149  and  _150
REMARK   64  A    between atoms: _155  and  _157
REMARK   65  A    between atoms: _157  and  _158
REMARK   66  A    between atoms: _157  and  _160
REMARK   67  A    between atoms: _160  and  _161
REMARK   68  A    between atoms: _161  and  _162
REMARK   69  A    between atoms: _166  and  _167
REMARK   70  A    between atoms: _172  and  _174
REMARK   71  A    between atoms: _174  and  _175
REMARK   72  A    between atoms: _174  and  _177
REMARK   73  A    between atoms: _177  and  _178
REMARK   74  A    between atoms: _183  and  _185
REMARK   75  A    between atoms: _185  and  _186
REMARK   76  A    between atoms: _185  and  _188
REMARK   77  A    between atoms: _188  and  _189
REMARK   78  A    between atoms: _194  and  _196
REMARK   79  A    between atoms: _196  and  _197
REMARK   80  A    between atoms: _196  and  _199
REMARK   81  A    between atoms: _199  and  _200
REMARK   82  A    between atoms: _203  and  _205
REMARK   83  A    between atoms: _205  and  _206
REMARK   84  A    between atoms: _208  and  _210
REMARK   85  A    between atoms: _210  and  _211
REMARK   86  A    between atoms: _210  and  _213
REMARK   87  A    between atoms: _213  and  _214
REMARK   88  A    between atoms: _216  and  _218
REMARK   89  A    between atoms: _218  and  _219
REMARK   90  A    between atoms: _218  and  _221
REMARK   91  A    between atoms: _221  and  _222
REMARK   92  A    between atoms: _225  and  _227
REMARK   93  A    between atoms: _227  and  _228
REMARK   94  A    between atoms: _227  and  _230
REMARK   95  A    between atoms: _230  and  _231
REMARK   96  A    between atoms: _231  and  _232
REMARK   97  A    between atoms: _232  and  _233
REMARK   98  A    between atoms: _233  and  _234
REMARK   99  A    between atoms: _238  and  _240
REMARK  100  A    between atoms: _240  and  _241
REMARK  101  A    between atoms: _240  and  _243
REMARK  102  A    between atoms: _243  and  _244
REMARK  103  A    between atoms: _247  and  _249
REMARK  104  A    between atoms: _249  and  _250
REMARK  105  A    between atoms: _252  and  _254
REMARK  106  A    between atoms: _254  and  _255
REMARK  107  A    between atoms: _254  and  _257
REMARK  108  A    between atoms: _257  and  _258
REMARK  109  A    between atoms: _260  and  _262
REMARK  110  A    between atoms: _262  and  _263
REMARK  111  A    between atoms: _265  and  _267
REMARK  112  A    between atoms: _267  and  _268
REMARK  113  A    between atoms: _267  and  _270
REMARK  114  A    between atoms: _270  and  _271
REMARK  115  A    between atoms: _274  and  _276
REMARK  116  A    between atoms: _276  and  _277
REMARK  117  A    between atoms: _276  and  _279
REMARK  118  A    between atoms: _279  and  _280
REMARK  119  A    between atoms: _283  and  _285
REMARK  120  A    between atoms: _285  and  _286
REMARK  121  A    between atoms: _285  and  _288
REMARK  122  A    between atoms: _288  and  _289
REMARK  123  A    between atoms: _294  and  _296
REMARK  124  A    between atoms: _296  and  _297
REMARK  125  A    between atoms: _296  and  _299
REMARK  126  A    between atoms: _299  and  _300
REMARK  127  A    between atoms: _303  and  _305
REMARK  128  A    between atoms: _305  and  _306
REMARK  129  A    between atoms: _305  and  _308
REMARK  130  A    between atoms: _308  and  _309
REMARK  131  A    between atoms: _311  and  _313
REMARK  132  A    between atoms: _313  and  _314
REMARK  133  A    between atoms: _313  and  _316
REMARK  134  A    between atoms: _316  and  _317
REMARK  135  A    between atoms: _317  and  _318
REMARK  136  A    between atoms: _318  and  _319
REMARK  137  A    between atoms: _328  and  _330
REMARK  138  A    between atoms: _330  and  _331
REMARK  139  A    between atoms: _330  and  _333
REMARK  140  A    between atoms: _333  and  _334
REMARK                            x       y       z     vdW  Elec       q    Type
REMARK                         _______ _______ _______ _____ _____    ______ ____
ROOT
ATOM      1  O   HOH     1      -6.857  55.313   3.415  0.00  0.00    +0.000 OA
ENDROOT
TORSDOF 0
REMARK  Name = ../refined-set-2016/3g2z/3g2z_pocket.pdb
REMARK  140 active torsions:
REMARK  status: ('A' for Active; 'I' for Inactive)
REMARK    1  A    between atoms: _1  and  _3
REMARK    2  A    between atoms: _3  and  _4
REMARK    3  A    between atoms: _3  and  _6
REMARK    4  A    between atoms: _6  and  _7
REMARK    5  A    between atoms: _7  and  _8
REMARK    6  A    between atoms: _10  and  _12
REMARK    7  A    between atoms: _12  and  _13
REMARK    8  A    between atoms: _12  and  _15
REMARK    9  A    between atoms: _17  and  _19
REMARK   10  A    between atoms: _19  and  _20
REMARK   11  A    between atoms: _19  and  _22
REMARK   12  A    between atoms: _22  and  _23
REMARK   13  A    between atoms: _25  and  _27
REMARK   14  A    between atoms: _27  and  _28
REMARK   15  A    between atoms: _27  and  _30
REMARK   16  A    between atoms: _30  and  _31
REMARK   17  A    between atoms: _34  and  _36
REMARK   18  A    between atoms: _36  and  _37
REMARK   19  A    between atoms: _36  and  _39
REMARK   20  A    between atoms: _39  and  _40
REMARK   21  A    between atoms: _40  and  _41
REMARK   22  A    between atoms: _41  and  _42
REMARK   23  A    between atoms: _42  and  _43
REMARK   24  A    between atoms: _47  and  _49
REMARK   25  A    between atoms: _49  and  _50
REMARK   26  A    between atoms: _49  and  _52
REMARK   27  A    between atoms: _55  and  _57
REMARK   28  A    between atoms: _57  and  _58
REMARK   29  A    between atoms: _57  and  _60
REMARK   30  A    between atoms: _60  and  _61
REMARK   31  A    between atoms: _66  and  _68
REMARK   32  A    between atoms: _68  and  _69
REMARK   33  A    between atoms: _68  and  _71
REMARK   34  A    between atoms: _71  and  _72
REMARK   35  A    between atoms: _77  and  _78
REMARK   36  A    between atoms: _80  and  _82
REMARK   37  A    between atoms: _82  and  _83
REMARK   38  A    between atoms: _82  and  _85
REMARK   39  A    between atoms: _85  and  _86
REMARK   40  A    between atoms: _92  and  _93
REMARK   41  A    between atoms: _98  and  _100
REMARK   42  A    between atoms: _100  and  _101
REMARK   43  A    between atoms: _104  and  _106
REMARK   44  A    between atoms: _106  and  _107
REMARK   45  A    between atoms: _106  and  _109
REMARK   46  A    between atoms: _109  and  _110
REMARK   47  A    between atoms: _113  and  _115
REMARK   48  A    between atoms: _115  and  _116
REMARK   49  A    between atoms: _115  and  _118
REMARK   50  A    between atoms: _118  and  _119
REMARK   51  A    between atoms: _124  and  _125
REMARK   52  A    between atoms: _127  and  _129
REMARK   53  A    between atoms: _129  and  _130
REMARK   54  A    between atoms: _129  and  _132
REMARK   55  A    between atoms: _132  and  _133
REMARK   56  A    between atoms: _135  and  _137
REMARK   57  A    between atoms: _137  and  _138
REMARK   58  A    between atoms: _137  and  _140
REMARK   59  A    between atoms: _140  and  _141
REMARK   60  A    between atoms: _144  and  _146
REMARK   61  A    between atoms: _146  and  _147
REMARK   62  A    between atoms: _146  and  _149
REMARK   63  A    between atoms: _149  and  _150
REMARK   64  A    between atoms: _155  and  _157
REMARK   65  A    between atoms: _157  and  _158
REMARK   66  A    between atoms: _157  and  _160
REMARK   67  A    between atoms: _160  and  _161
REMARK   68  A    between atoms: _161  and  _162
REMARK   69  A    between atoms: _166  and  _167
REMARK   70  A    between atoms: _172  and  _174
REMARK   71  A    between atoms: _174  and  _175
REMARK   72  A    between atoms: _174  and  _177
REMARK   73  A    between atoms: _177  and  _178
REMARK   74  A    between atoms: _183  and  _185
REMARK   75  A    between atoms: _185  and  _186
REMARK   76  A    between atoms: _185  and  _188
REMARK   77  A    between atoms: _188  and  _189
REMARK   78  A    between atoms: _194  and  _196
REMARK   79  A    between atoms: _196  and  _197
REMARK   80  A    between atoms: _196  and  _199
REMARK   81  A    between atoms: _199  and  _200
REMARK   82  A    between atoms: _203  and  _205
REMARK   83  A    between atoms: _205  and  _206
REMARK   84  A    between atoms: _208  and  _210
REMARK   85  A    between atoms: _210  and  _211
REMARK   86  A    between atoms: _210  and  _213
REMARK   87  A    between atoms: _213  and  _214
REMARK   88  A    between atoms: _216  and  _218
REMARK   89  A    between atoms: _218  and  _219
REMARK   90  A    between atoms: _218  and  _221
REMARK   91  A    between atoms: _221  and  _222
REMARK   92  A    between atoms: _225  and  _227
REMARK   93  A    between atoms: _227  and  _228
REMARK   94  A    between atoms: _227  and  _230
REMARK   95  A    between atoms: _230  and  _231
REMARK   96  A    between atoms: _231  and  _232
REMARK   97  A    between atoms: _232  and  _233
REMARK   98  A    between atoms: _233  and  _234
REMARK   99  A    between atoms: _238  and  _240
REMARK  100  A    between atoms: _240  and  _241
REMARK  101  A    between atoms: _240  and  _243
REMARK  102  A    between atoms: _243  and  _244
REMARK  103  A    between atoms: _247  and  _249
REMARK  104  A    between atoms: _249  and  _250
REMARK  105  A    between atoms: _252  and  _254
REMARK  106  A    between atoms: _254  and  _255
REMARK  107  A    between atoms: _254  and  _257
REMARK  108  A    between atoms: _257  and  _258
REMARK  109  A    between atoms: _260  and  _262
REMARK  110  A    between atoms: _262  and  _263
REMARK  111  A    between atoms: _265  and  _267
REMARK  112  A    between atoms: _267  and  _268
REMARK  113  A    between atoms: _267  and  _270
REMARK  114  A    between atoms: _270  and  _271
REMARK  115  A    between atoms: _274  and  _276
REMARK  116  A    between atoms: _276  and  _277
REMARK  117  A    between atoms: _276  and  _279
REMARK  118  A    between atoms: _279  and  _280
REMARK  119  A    between atoms: _283  and  _285
REMARK  120  A    between atoms: _285  and  _286
REMARK  121  A    between atoms: _285  and  _288
REMARK  122  A    between atoms: _288  and  _289
REMARK  123  A    between atoms: _294  and  _296
REMARK  124  A    between atoms: _296  and  _297
REMARK  125  A    between atoms: _296  and  _299
REMARK  126  A    between atoms: _299  and  _300
REMARK  127  A    between atoms: _303  and  _305
REMARK  128  A    between atoms: _305  and  _306
REMARK  129  A    between atoms: _305  and  _308
REMARK  130  A    between atoms: _308  and  _309
REMARK  131  A    between atoms: _311  and  _313
REMARK  132  A    between atoms: _313  and  _314
REMARK  133  A    between atoms: _313  and  _316
REMARK  134  A    between atoms: _316  and  _317
REMARK  135  A    between atoms: _317  and  _318
REMARK  136  A    between atoms: _318  and  _319
REMARK  137  A    between atoms: _328  and  _330
REMARK  138  A    between atoms: _330  and  _331
REMARK  139  A    between atoms: _330  and  _333
REMARK  140  A    between atoms: _333  and  _334
REMARK                            x       y       z     vdW  Elec       q    Type
REMARK                         _______ _______ _______ _____ _____    ______ ____
ROOT
ATOM      1  O   HOH     1      -2.827  46.517  15.217  0.00  0.00    +0.000 OA
ENDROOT
TORSDOF 0
REMARK  Name = ../refined-set-2016/3g2z/3g2z_pocket.pdb
REMARK  140 active torsions:
REMARK  status: ('A' for Active; 'I' for Inactive)
REMARK    1  A    between atoms: _1  and  _3
REMARK    2  A    between atoms: _3  and  _4
REMARK    3  A    between atoms: _3  and  _6
REMARK    4  A    between atoms: _6  and  _7
REMARK    5  A    between atoms: _7  and  _8
REMARK    6  A    between atoms: _10  and  _12
REMARK    7  A    between atoms: _12  and  _13
REMARK    8  A    between atoms: _12  and  _15
REMARK    9  A    between atoms: _17  and  _19
REMARK   10  A    between atoms: _19  and  _20
REMARK   11  A    between atoms: _19  and  _22
REMARK   12  A    between atoms: _22  and  _23
REMARK   13  A    between atoms: _25  and  _27
REMARK   14  A    between atoms: _27  and  _28
REMARK   15  A    between atoms: _27  and  _30
REMARK   16  A    between atoms: _30  and  _31
REMARK   17  A    between atoms: _34  and  _36
REMARK   18  A    between atoms: _36  and  _37
REMARK   19  A    between atoms: _36  and  _39
REMARK   20  A    between atoms: _39  and  _40
REMARK   21  A    between atoms: _40  and  _41
REMARK   22  A    between atoms: _41  and  _42
REMARK   23  A    between atoms: _42  and  _43
REMARK   24  A    between atoms: _47  and  _49
REMARK   25  A    between atoms: _49  and  _50
REMARK   26  A    between atoms: _49  and  _52
REMARK   27  A    between atoms: _55  and  _57
REMARK   28  A    between atoms: _57  and  _58
REMARK   29  A    between atoms: _57  and  _60
REMARK   30  A    between atoms: _60  and  _61
REMARK   31  A    between atoms: _66  and  _68
REMARK   32  A    between atoms: _68  and  _69
REMARK   33  A    between atoms: _68  and  _71
REMARK   34  A    between atoms: _71  and  _72
REMARK   35  A    between atoms: _77  and  _78
REMARK   36  A    between atoms: _80  and  _82
REMARK   37  A    between atoms: _82  and  _83
REMARK   38  A    between atoms: _82  and  _85
REMARK   39  A    between atoms: _85  and  _86
REMARK   40  A    between atoms: _92  and  _93
REMARK   41  A    between atoms: _98  and  _100
REMARK   42  A    between atoms: _100  and  _101
REMARK   43  A    between atoms: _104  and  _106
REMARK   44  A    between atoms: _106  and  _107
REMARK   45  A    between atoms: _106  and  _109
REMARK   46  A    between atoms: _109  and  _110
REMARK   47  A    between atoms: _113  and  _115
REMARK   48  A    between atoms: _115  and  _116
REMARK   49  A    between atoms: _115  and  _118
REMARK   50  A    between atoms: _118  and  _119
REMARK   51  A    between atoms: _124  and  _125
REMARK   52  A    between atoms: _127  and  _129
REMARK   53  A    between atoms: _129  and  _130
REMARK   54  A    between atoms: _129  and  _132
REMARK   55  A    between atoms: _132  and  _133
REMARK   56  A    between atoms: _135  and  _137
REMARK   57  A    between atoms: _137  and  _138
REMARK   58  A    between atoms: _137  and  _140
REMARK   59  A    between atoms: _140  and  _141
REMARK   60  A    between atoms: _144  and  _146
REMARK   61  A    between atoms: _146  and  _147
REMARK   62  A    between atoms: _146  and  _149
REMARK   63  A    between atoms: _149  and  _150
REMARK   64  A    between atoms: _155  and  _157
REMARK   65  A    between atoms: _157  and  _158
REMARK   66  A    between atoms: _157  and  _160
REMARK   67  A    between atoms: _160  and  _161
REMARK   68  A    between atoms: _161  and  _162
REMARK   69  A    between atoms: _166  and  _167
REMARK   70  A    between atoms: _172  and  _174
REMARK   71  A    between atoms: _174  and  _175
REMARK   72  A    between atoms: _174  and  _177
REMARK   73  A    between atoms: _177  and  _178
REMARK   74  A    between atoms: _183  and  _185
REMARK   75  A    between atoms: _185  and  _186
REMARK   76  A    between atoms: _185  and  _188
REMARK   77  A    between atoms: _188  and  _189
REMARK   78  A    between atoms: _194  and  _196
REMARK   79  A    between atoms: _196  and  _197
REMARK   80  A    between atoms: _196  and  _199
REMARK   81  A    between atoms: _199  and  _200
REMARK   82  A    between atoms: _203  and  _205
REMARK   83  A    between atoms: _205  and  _206
REMARK   84  A    between atoms: _208  and  _210
REMARK   85  A    between atoms: _210  and  _211
REMARK   86  A    between atoms: _210  and  _213
REMARK   87  A    between atoms: _213  and  _214
REMARK   88  A    between atoms: _216  and  _218
REMARK   89  A    between atoms: _218  and  _219
REMARK   90  A    between atoms: _218  and  _221
REMARK   91  A    between atoms: _221  and  _222
REMARK   92  A    between atoms: _225  and  _227
REMARK   93  A    between atoms: _227  and  _228
REMARK   94  A    between atoms: _227  and  _230
REMARK   95  A    between atoms: _230  and  _231
REMARK   96  A    between atoms: _231  and  _232
REMARK   97  A    between atoms: _232  and  _233
REMARK   98  A    between atoms: _233  and  _234
REMARK   99  A    between atoms: _238  and  _240
REMARK  100  A    between atoms: _240  and  _241
REMARK  101  A    between atoms: _240  and  _243
REMARK  102  A    between atoms: _243  and  _244
REMARK  103  A    between atoms: _247  and  _249
REMARK  104  A    between atoms: _249  and  _250
REMARK  105  A    between atoms: _252  and  _254
REMARK  106  A    between atoms: _254  and  _255
REMARK  107  A    between atoms: _254  and  _257
REMARK  108  A    between atoms: _257  and  _258
REMARK  109  A    between atoms: _260  and  _262
REMARK  110  A    between atoms: _262  and  _263
REMARK  111  A    between atoms: _265  and  _267
REMARK  112  A    between atoms: _267  and  _268
REMARK  113  A    between atoms: _267  and  _270
REMARK  114  A    between atoms: _270  and  _271
REMARK  115  A    between atoms: _274  and  _276
REMARK  116  A    between atoms: _276  and  _277
REMARK  117  A    between atoms: _276  and  _279
REMARK  118  A    between atoms: _279  and  _280
REMARK  119  A    between atoms: _283  and  _285
REMARK  120  A    between atoms: _285  and  _286
REMARK  121  A    between atoms: _285  and  _288
REMARK  122  A    between atoms: _288  and  _289
REMARK  123  A    between atoms: _294  and  _296
REMARK  124  A    between atoms: _296  and  _297
REMARK  125  A    between atoms: _296  and  _299
REMARK  126  A    between atoms: _299  and  _300
REMARK  127  A    between atoms: _303  and  _305
REMARK  128  A    between atoms: _305  and  _306
REMARK  129  A    between atoms: _305  and  _308
REMARK  130  A    between atoms: _308  and  _309
REMARK  131  A    between atoms: _311  and  _313
REMARK  132  A    between atoms: _313  and  _314
REMARK  133  A    between atoms: _313  and  _316
REMARK  134  A    between atoms: _316  and  _317
REMARK  135  A    between atoms: _317  and  _318
REMARK  136  A    between atoms: _318  and  _319
REMARK  137  A    between atoms: _328  and  _330
REMARK  138  A    between atoms: _330  and  _331
REMARK  139  A    between atoms: _330  and  _333
REMARK  140  A    between atoms: _333  and  _334
REMARK                            x       y       z     vdW  Elec       q    Type
REMARK                         _______ _______ _______ _____ _____    ______ ____
ROOT
ATOM      1  O   HOH     1     -10.242  48.832  10.184  0.00  0.00    +0.000 OA
ENDROOT
TORSDOF 0
REMARK  Name = ../refined-set-2016/3g2z/3g2z_pocket.pdb
REMARK  140 active torsions:
REMARK  status: ('A' for Active; 'I' for Inactive)
REMARK    1  A    between atoms: _1  and  _3
REMARK    2  A    between atoms: _3  and  _4
REMARK    3  A    between atoms: _3  and  _6
REMARK    4  A    between atoms: _6  and  _7
REMARK    5  A    between atoms: _7  and  _8
REMARK    6  A    between atoms: _10  and  _12
REMARK    7  A    between atoms: _12  and  _13
REMARK    8  A    between atoms: _12  and  _15
REMARK    9  A    between atoms: _17  and  _19
REMARK   10  A    between atoms: _19  and  _20
REMARK   11  A    between atoms: _19  and  _22
REMARK   12  A    between atoms: _22  and  _23
REMARK   13  A    between atoms: _25  and  _27
REMARK   14  A    between atoms: _27  and  _28
REMARK   15  A    between atoms: _27  and  _30
REMARK   16  A    between atoms: _30  and  _31
REMARK   17  A    between atoms: _34  and  _36
REMARK   18  A    between atoms: _36  and  _37
REMARK   19  A    between atoms: _36  and  _39
REMARK   20  A    between atoms: _39  and  _40
REMARK   21  A    between atoms: _40  and  _41
REMARK   22  A    between atoms: _41  and  _42
REMARK   23  A    between atoms: _42  and  _43
REMARK   24  A    between atoms: _47  and  _49
REMARK   25  A    between atoms: _49  and  _50
REMARK   26  A    between atoms: _49  and  _52
REMARK   27  A    between atoms: _55  and  _57
REMARK   28  A    between atoms: _57  and  _58
REMARK   29  A    between atoms: _57  and  _60
REMARK   30  A    between atoms: _60  and  _61
REMARK   31  A    between atoms: _66  and  _68
REMARK   32  A    between atoms: _68  and  _69
REMARK   33  A    between atoms: _68  and  _71
REMARK   34  A    between atoms: _71  and  _72
REMARK   35  A    between atoms: _77  and  _78
REMARK   36  A    between atoms: _80  and  _82
REMARK   37  A    between atoms: _82  and  _83
REMARK   38  A    between atoms: _82  and  _85
REMARK   39  A    between atoms: _85  and  _86
REMARK   40  A    between atoms: _92  and  _93
REMARK   41  A    between atoms: _98  and  _100
REMARK   42  A    between atoms: _100  and  _101
REMARK   43  A    between atoms: _104  and  _106
REMARK   44  A    between atoms: _106  and  _107
REMARK   45  A    between atoms: _106  and  _109
REMARK   46  A    between atoms: _109  and  _110
REMARK   47  A    between atoms: _113  and  _115
REMARK   48  A    between atoms: _115  and  _116
REMARK   49  A    between atoms: _115  and  _118
REMARK   50  A    between atoms: _118  and  _119
REMARK   51  A    between atoms: _124  and  _125
REMARK   52  A    between atoms: _127  and  _129
REMARK   53  A    between atoms: _129  and  _130
REMARK   54  A    between atoms: _129  and  _132
REMARK   55  A    between atoms: _132  and  _133
REMARK   56  A    between atoms: _135  and  _137
REMARK   57  A    between atoms: _137  and  _138
REMARK   58  A    between atoms: _137  and  _140
REMARK   59  A    between atoms: _140  and  _141
REMARK   60  A    between atoms: _144  and  _146
REMARK   61  A    between atoms: _146  and  _147
REMARK   62  A    between atoms: _146  and  _149
REMARK   63  A    between atoms: _149  and  _150
REMARK   64  A    between atoms: _155  and  _157
REMARK   65  A    between atoms: _157  and  _158
REMARK   66  A    between atoms: _157  and  _160
REMARK   67  A    between atoms: _160  and  _161
REMARK   68  A    between atoms: _161  and  _162
REMARK   69  A    between atoms: _166  and  _167
REMARK   70  A    between atoms: _172  and  _174
REMARK   71  A    between atoms: _174  and  _175
REMARK   72  A    between atoms: _174  and  _177
REMARK   73  A    between atoms: _177  and  _178
REMARK   74  A    between atoms: _183  and  _185
REMARK   75  A    between atoms: _185  and  _186
REMARK   76  A    between atoms: _185  and  _188
REMARK   77  A    between atoms: _188  and  _189
REMARK   78  A    between atoms: _194  and  _196
REMARK   79  A    between atoms: _196  and  _197
REMARK   80  A    between atoms: _196  and  _199
REMARK   81  A    between atoms: _199  and  _200
REMARK   82  A    between atoms: _203  and  _205
REMARK   83  A    between atoms: _205  and  _206
REMARK   84  A    between atoms: _208  and  _210
REMARK   85  A    between atoms: _210  and  _211
REMARK   86  A    between atoms: _210  and  _213
REMARK   87  A    between atoms: _213  and  _214
REMARK   88  A    between atoms: _216  and  _218
REMARK   89  A    between atoms: _218  and  _219
REMARK   90  A    between atoms: _218  and  _221
REMARK   91  A    between atoms: _221  and  _222
REMARK   92  A    between atoms: _225  and  _227
REMARK   93  A    between atoms: _227  and  _228
REMARK   94  A    between atoms: _227  and  _230
REMARK   95  A    between atoms: _230  and  _231
REMARK   96  A    between atoms: _231  and  _232
REMARK   97  A    between atoms: _232  and  _233
REMARK   98  A    between atoms: _233  and  _234
REMARK   99  A    between atoms: _238  and  _240
REMARK  100  A    between atoms: _240  and  _241
REMARK  101  A    between atoms: _240  and  _243
REMARK  102  A    between atoms: _243  and  _244
REMARK  103  A    between atoms: _247  and  _249
REMARK  104  A    between atoms: _249  and  _250
REMARK  105  A    between atoms: _252  and  _254
REMARK  106  A    between atoms: _254  and  _255
REMARK  107  A    between atoms: _254  and  _257
REMARK  108  A    between atoms: _257  and  _258
REMARK  109  A    between atoms: _260  and  _262
REMARK  110  A    between atoms: _262  and  _263
REMARK  111  A    between atoms: _265  and  _267
REMARK  112  A    between atoms: _267  and  _268
REMARK  113  A    between atoms: _267  and  _270
REMARK  114  A    between atoms: _270  and  _271
REMARK  115  A    between atoms: _274  and  _276
REMARK  116  A    between atoms: _276  and  _277
REMARK  117  A    between atoms: _276  and  _279
REMARK  118  A    between atoms: _279  and  _280
REMARK  119  A    between atoms: _283  and  _285
REMARK  120  A    between atoms: _285  and  _286
REMARK  121  A    between atoms: _285  and  _288
REMARK  122  A    between atoms: _288  and  _289
REMARK  123  A    between atoms: _294  and  _296
REMARK  124  A    between atoms: _296  and  _297
REMARK  125  A    between atoms: _296  and  _299
REMARK  126  A    between atoms: _299  and  _300
REMARK  127  A    between atoms: _303  and  _305
REMARK  128  A    between atoms: _305  and  _306
REMARK  129  A    between atoms: _305  and  _308
REMARK  130  A    between atoms: _308  and  _309
REMARK  131  A    between atoms: _311  and  _313
REMARK  132  A    between atoms: _313  and  _314
REMARK  133  A    between atoms: _313  and  _316
REMARK  134  A    between atoms: _316  and  _317
REMARK  135  A    between atoms: _317  and  _318
REMARK  136  A    between atoms: _318  and  _319
REMARK  137  A    between atoms: _328  and  _330
REMARK  138  A    between atoms: _330  and  _331
REMARK  139  A    between atoms: _330  and  _333
REMARK  140  A    between atoms: _333  and  _334
REMARK                            x       y       z     vdW  Elec       q    Type
REMARK                         _______ _______ _______ _____ _____    ______ ____
ROOT
ATOM      1  O   HOH     1      -9.092  57.260   7.208  0.00  0.00    +0.000 OA
ENDROOT
TORSDOF 0
REMARK  Name = ../refined-set-2016/3g2z/3g2z_pocket.pdb
REMARK  140 active torsions:
REMARK  status: ('A' for Active; 'I' for Inactive)
REMARK    1  A    between atoms: _1  and  _3
REMARK    2  A    between atoms: _3  and  _4
REMARK    3  A    between atoms: _3  and  _6
REMARK    4  A    between atoms: _6  and  _7
REMARK    5  A    between atoms: _7  and  _8
REMARK    6  A    between atoms: _10  and  _12
REMARK    7  A    between atoms: _12  and  _13
REMARK    8  A    between atoms: _12  and  _15
REMARK    9  A    between atoms: _17  and  _19
REMARK   10  A    between atoms: _19  and  _20
REMARK   11  A    between atoms: _19  and  _22
REMARK   12  A    between atoms: _22  and  _23
REMARK   13  A    between atoms: _25  and  _27
REMARK   14  A    between atoms: _27  and  _28
REMARK   15  A    between atoms: _27  and  _30
REMARK   16  A    between atoms: _30  and  _31
REMARK   17  A    between atoms: _34  and  _36
REMARK   18  A    between atoms: _36  and  _37
REMARK   19  A    between atoms: _36  and  _39
REMARK   20  A    between atoms: _39  and  _40
REMARK   21  A    between atoms: _40  and  _41
REMARK   22  A    between atoms: _41  and  _42
REMARK   23  A    between atoms: _42  and  _43
REMARK   24  A    between atoms: _47  and  _49
REMARK   25  A    between atoms: _49  and  _50
REMARK   26  A    between atoms: _49  and  _52
REMARK   27  A    between atoms: _55  and  _57
REMARK   28  A    between atoms: _57  and  _58
REMARK   29  A    between atoms: _57  and  _60
REMARK   30  A    between atoms: _60  and  _61
REMARK   31  A    between atoms: _66  and  _68
REMARK   32  A    between atoms: _68  and  _69
REMARK   33  A    between atoms: _68  and  _71
REMARK   34  A    between atoms: _71  and  _72
REMARK   35  A    between atoms: _77  and  _78
REMARK   36  A    between atoms: _80  and  _82
REMARK   37  A    between atoms: _82  and  _83
REMARK   38  A    between atoms: _82  and  _85
REMARK   39  A    between atoms: _85  and  _86
REMARK   40  A    between atoms: _92  and  _93
REMARK   41  A    between atoms: _98  and  _100
REMARK   42  A    between atoms: _100  and  _101
REMARK   43  A    between atoms: _104  and  _106
REMARK   44  A    between atoms: _106  and  _107
REMARK   45  A    between atoms: _106  and  _109
REMARK   46  A    between atoms: _109  and  _110
REMARK   47  A    between atoms: _113  and  _115
REMARK   48  A    between atoms: _115  and  _116
REMARK   49  A    between atoms: _115  and  _118
REMARK   50  A    between atoms: _118  and  _119
REMARK   51  A    between atoms: _124  and  _125
REMARK   52  A    between atoms: _127  and  _129
REMARK   53  A    between atoms: _129  and  _130
REMARK   54  A    between atoms: _129  and  _132
REMARK   55  A    between atoms: _132  and  _133
REMARK   56  A    between atoms: _135  and  _137
REMARK   57  A    between atoms: _137  and  _138
REMARK   58  A    between atoms: _137  and  _140
REMARK   59  A    between atoms: _140  and  _141
REMARK   60  A    between atoms: _144  and  _146
REMARK   61  A    between atoms: _146  and  _147
REMARK   62  A    between atoms: _146  and  _149
REMARK   63  A    between atoms: _149  and  _150
REMARK   64  A    between atoms: _155  and  _157
REMARK   65  A    between atoms: _157  and  _158
REMARK   66  A    between atoms: _157  and  _160
REMARK   67  A    between atoms: _160  and  _161
REMARK   68  A    between atoms: _161  and  _162
REMARK   69  A    between atoms: _166  and  _167
REMARK   70  A    between atoms: _172  and  _174
REMARK   71  A    between atoms: _174  and  _175
REMARK   72  A    between atoms: _174  and  _177
REMARK   73  A    between atoms: _177  and  _178
REMARK   74  A    between atoms: _183  and  _185
REMARK   75  A    between atoms: _185  and  _186
REMARK   76  A    between atoms: _185  and  _188
REMARK   77  A    between atoms: _188  and  _189
REMARK   78  A    between atoms: _194  and  _196
REMARK   79  A    between atoms: _196  and  _197
REMARK   80  A    between atoms: _196  and  _199
REMARK   81  A    between atoms: _199  and  _200
REMARK   82  A    between atoms: _203  and  _205
REMARK   83  A    between atoms: _205  and  _206
REMARK   84  A    between atoms: _208  and  _210
REMARK   85  A    between atoms: _210  and  _211
REMARK   86  A    between atoms: _210  and  _213
REMARK   87  A    between atoms: _213  and  _214
REMARK   88  A    between atoms: _216  and  _218
REMARK   89  A    between atoms: _218  and  _219
REMARK   90  A    between atoms: _218  and  _221
REMARK   91  A    between atoms: _221  and  _222
REMARK   92  A    between atoms: _225  and  _227
REMARK   93  A    between atoms: _227  and  _228
REMARK   94  A    between atoms: _227  and  _230
REMARK   95  A    between atoms: _230  and  _231
REMARK   96  A    between atoms: _231  and  _232
REMARK   97  A    between atoms: _232  and  _233
REMARK   98  A    between atoms: _233  and  _234
REMARK   99  A    between atoms: _238  and  _240
REMARK  100  A    between atoms: _240  and  _241
REMARK  101  A    between atoms: _240  and  _243
REMARK  102  A    between atoms: _243  and  _244
REMARK  103  A    between atoms: _247  and  _249
REMARK  104  A    between atoms: _249  and  _250
REMARK  105  A    between atoms: _252  and  _254
REMARK  106  A    between atoms: _254  and  _255
REMARK  107  A    between atoms: _254  and  _257
REMARK  108  A    between atoms: _257  and  _258
REMARK  109  A    between atoms: _260  and  _262
REMARK  110  A    between atoms: _262  and  _263
REMARK  111  A    between atoms: _265  and  _267
REMARK  112  A    between atoms: _267  and  _268
REMARK  113  A    between atoms: _267  and  _270
REMARK  114  A    between atoms: _270  and  _271
REMARK  115  A    between atoms: _274  and  _276
REMARK  116  A    between atoms: _276  and  _277
REMARK  117  A    between atoms: _276  and  _279
REMARK  118  A    between atoms: _279  and  _280
REMARK  119  A    between atoms: _283  and  _285
REMARK  120  A    between atoms: _285  and  _286
REMARK  121  A    between atoms: _285  and  _288
REMARK  122  A    between atoms: _288  and  _289
REMARK  123  A    between atoms: _294  and  _296
REMARK  124  A    between atoms: _296  and  _297
REMARK  125  A    between atoms: _296  and  _299
REMARK  126  A    between atoms: _299  and  _300
REMARK  127  A    between atoms: _303  and  _305
REMARK  128  A    between atoms: _305  and  _306
REMARK  129  A    between atoms: _305  and  _308
REMARK  130  A    between atoms: _308  and  _309
REMARK  131  A    between atoms: _311  and  _313
REMARK  132  A    between atoms: _313  and  _314
REMARK  133  A    between atoms: _313  and  _316
REMARK  134  A    between atoms: _316  and  _317
REMARK  135  A    between atoms: _317  and  _318
REMARK  136  A    between atoms: _318  and  _319
REMARK  137  A    between atoms: _328  and  _330
REMARK  138  A    between atoms: _330  and  _331
REMARK  139  A    between atoms: _330  and  _333
REMARK  140  A    between atoms: _333  and  _334
REMARK                            x       y       z     vdW  Elec       q    Type
REMARK                         _______ _______ _______ _____ _____    ______ ____
ROOT
ATOM      1  O   HOH     1       0.609  53.182   9.314  0.00  0.00    +0.000 OA
ENDROOT
TORSDOF 0
REMARK  Name = ../refined-set-2016/3g2z/3g2z_pocket.pdb
REMARK  140 active torsions:
REMARK  status: ('A' for Active; 'I' for Inactive)
REMARK    1  A    between atoms: _1  and  _3
REMARK    2  A    between atoms: _3  and  _4
REMARK    3  A    between atoms: _3  and  _6
REMARK    4  A    between atoms: _6  and  _7
REMARK    5  A    between atoms: _7  and  _8
REMARK    6  A    between atoms: _10  and  _12
REMARK    7  A    between atoms: _12  and  _13
REMARK    8  A    between atoms: _12  and  _15
REMARK    9  A    between atoms: _17  and  _19
REMARK   10  A    between atoms: _19  and  _20
REMARK   11  A    between atoms: _19  and  _22
REMARK   12  A    between atoms: _22  and  _23
REMARK   13  A    between atoms: _25  and  _27
REMARK   14  A    between atoms: _27  and  _28
REMARK   15  A    between atoms: _27  and  _30
REMARK   16  A    between atoms: _30  and  _31
REMARK   17  A    between atoms: _34  and  _36
REMARK   18  A    between atoms: _36  and  _37
REMARK   19  A    between atoms: _36  and  _39
REMARK   20  A    between atoms: _39  and  _40
REMARK   21  A    between atoms: _40  and  _41
REMARK   22  A    between atoms: _41  and  _42
REMARK   23  A    between atoms: _42  and  _43
REMARK   24  A    between atoms: _47  and  _49
REMARK   25  A    between atoms: _49  and  _50
REMARK   26  A    between atoms: _49  and  _52
REMARK   27  A    between atoms: _55  and  _57
REMARK   28  A    between atoms: _57  and  _58
REMARK   29  A    between atoms: _57  and  _60
REMARK   30  A    between atoms: _60  and  _61
REMARK   31  A    between atoms: _66  and  _68
REMARK   32  A    between atoms: _68  and  _69
REMARK   33  A    between atoms: _68  and  _71
REMARK   34  A    between atoms: _71  and  _72
REMARK   35  A    between atoms: _77  and  _78
REMARK   36  A    between atoms: _80  and  _82
REMARK   37  A    between atoms: _82  and  _83
REMARK   38  A    between atoms: _82  and  _85
REMARK   39  A    between atoms: _85  and  _86
REMARK   40  A    between atoms: _92  and  _93
REMARK   41  A    between atoms: _98  and  _100
REMARK   42  A    between atoms: _100  and  _101
REMARK   43  A    between atoms: _104  and  _106
REMARK   44  A    between atoms: _106  and  _107
REMARK   45  A    between atoms: _106  and  _109
REMARK   46  A    between atoms: _109  and  _110
REMARK   47  A    between atoms: _113  and  _115
REMARK   48  A    between atoms: _115  and  _116
REMARK   49  A    between atoms: _115  and  _118
REMARK   50  A    between atoms: _118  and  _119
REMARK   51  A    between atoms: _124  and  _125
REMARK   52  A    between atoms: _127  and  _129
REMARK   53  A    between atoms: _129  and  _130
REMARK   54  A    between atoms: _129  and  _132
REMARK   55  A    between atoms: _132  and  _133
REMARK   56  A    between atoms: _135  and  _137
REMARK   57  A    between atoms: _137  and  _138
REMARK   58  A    between atoms: _137  and  _140
REMARK   59  A    between atoms: _140  and  _141
REMARK   60  A    between atoms: _144  and  _146
REMARK   61  A    between atoms: _146  and  _147
REMARK   62  A    between atoms: _146  and  _149
REMARK   63  A    between atoms: _149  and  _150
REMARK   64  A    between atoms: _155  and  _157
REMARK   65  A    between atoms: _157  and  _158
REMARK   66  A    between atoms: _157  and  _160
REMARK   67  A    between atoms: _160  and  _161
REMARK   68  A    between atoms: _161  and  _162
REMARK   69  A    between atoms: _166  and  _167
REMARK   70  A    between atoms: _172  and  _174
REMARK   71  A    between atoms: _174  and  _175
REMARK   72  A    between atoms: _174  and  _177
REMARK   73  A    between atoms: _177  and  _178
REMARK   74  A    between atoms: _183  and  _185
REMARK   75  A    between atoms: _185  and  _186
REMARK   76  A    between atoms: _185  and  _188
REMARK   77  A    between atoms: _188  and  _189
REMARK   78  A    between atoms: _194  and  _196
REMARK   79  A    between atoms: _196  and  _197
REMARK   80  A    between atoms: _196  and  _199
REMARK   81  A    between atoms: _199  and  _200
REMARK   82  A    between atoms: _203  and  _205
REMARK   83  A    between atoms: _205  and  _206
REMARK   84  A    between atoms: _208  and  _210
REMARK   85  A    between atoms: _210  and  _211
REMARK   86  A    between atoms: _210  and  _213
REMARK   87  A    between atoms: _213  and  _214
REMARK   88  A    between atoms: _216  and  _218
REMARK   89  A    between atoms: _218  and  _219
REMARK   90  A    between atoms: _218  and  _221
REMARK   91  A    between atoms: _221  and  _222
REMARK   92  A    between atoms: _225  and  _227
REMARK   93  A    between atoms: _227  and  _228
REMARK   94  A    between atoms: _227  and  _230
REMARK   95  A    between atoms: _230  and  _231
REMARK   96  A    between atoms: _231  and  _232
REMARK   97  A    between atoms: _232  and  _233
REMARK   98  A    between atoms: _233  and  _234
REMARK   99  A    between atoms: _238  and  _240
REMARK  100  A    between atoms: _240  and  _241
REMARK  101  A    between atoms: _240  and  _243
REMARK  102  A    between atoms: _243  and  _244
REMARK  103  A    between atoms: _247  and  _249
REMARK  104  A    between atoms: _249  and  _250
REMARK  105  A    between atoms: _252  and  _254
REMARK  106  A    between atoms: _254  and  _255
REMARK  107  A    between atoms: _254  and  _257
REMARK  108  A    between atoms: _257  and  _258
REMARK  109  A    between atoms: _260  and  _262
REMARK  110  A    between atoms: _262  and  _263
REMARK  111  A    between atoms: _265  and  _267
REMARK  112  A    between atoms: _267  and  _268
REMARK  113  A    between atoms: _267  and  _270
REMARK  114  A    between atoms: _270  and  _271
REMARK  115  A    between atoms: _274  and  _276
REMARK  116  A    between atoms: _276  and  _277
REMARK  117  A    between atoms: _276  and  _279
REMARK  118  A    between atoms: _279  and  _280
REMARK  119  A    between atoms: _283  and  _285
REMARK  120  A    between atoms: _285  and  _286
REMARK  121  A    between atoms: _285  and  _288
REMARK  122  A    between atoms: _288  and  _289
REMARK  123  A    between atoms: _294  and  _296
REMARK  124  A    between atoms: _296  and  _297
REMARK  125  A    between atoms: _296  and  _299
REMARK  126  A    between atoms: _299  and  _300
REMARK  127  A    between atoms: _303  and  _305
REMARK  128  A    between atoms: _305  and  _306
REMARK  129  A    between atoms: _305  and  _308
REMARK  130  A    between atoms: _308  and  _309
REMARK  131  A    between atoms: _311  and  _313
REMARK  132  A    between atoms: _313  and  _314
REMARK  133  A    between atoms: _313  and  _316
REMARK  134  A    between atoms: _316  and  _317
REMARK  135  A    between atoms: _317  and  _318
REMARK  136  A    between atoms: _318  and  _319
REMARK  137  A    between atoms: _328  and  _330
REMARK  138  A    between atoms: _330  and  _331
REMARK  139  A    between atoms: _330  and  _333
REMARK  140  A    between atoms: _333  and  _334
REMARK                            x       y       z     vdW  Elec       q    Type
REMARK                         _______ _______ _______ _____ _____    ______ ____
ROOT
ATOM      1  O   HOH     1      -8.400  55.552   9.286  0.00  0.00    +0.000 OA
ENDROOT
TORSDOF 0
REMARK  Name = ../refined-set-2016/3g2z/3g2z_pocket.pdb
REMARK  140 active torsions:
REMARK  status: ('A' for Active; 'I' for Inactive)
REMARK    1  A    between atoms: _1  and  _3
REMARK    2  A    between atoms: _3  and  _4
REMARK    3  A    between atoms: _3  and  _6
REMARK    4  A    between atoms: _6  and  _7
REMARK    5  A    between atoms: _7  and  _8
REMARK    6  A    between atoms: _10  and  _12
REMARK    7  A    between atoms: _12  and  _13
REMARK    8  A    between atoms: _12  and  _15
REMARK    9  A    between atoms: _17  and  _19
REMARK   10  A    between atoms: _19  and  _20
REMARK   11  A    between atoms: _19  and  _22
REMARK   12  A    between atoms: _22  and  _23
REMARK   13  A    between atoms: _25  and  _27
REMARK   14  A    between atoms: _27  and  _28
REMARK   15  A    between atoms: _27  and  _30
REMARK   16  A    between atoms: _30  and  _31
REMARK   17  A    between atoms: _34  and  _36
REMARK   18  A    between atoms: _36  and  _37
REMARK   19  A    between atoms: _36  and  _39
REMARK   20  A    between atoms: _39  and  _40
REMARK   21  A    between atoms: _40  and  _41
REMARK   22  A    between atoms: _41  and  _42
REMARK   23  A    between atoms: _42  and  _43
REMARK   24  A    between atoms: _47  and  _49
REMARK   25  A    between atoms: _49  and  _50
REMARK   26  A    between atoms: _49  and  _52
REMARK   27  A    between atoms: _55  and  _57
REMARK   28  A    between atoms: _57  and  _58
REMARK   29  A    between atoms: _57  and  _60
REMARK   30  A    between atoms: _60  and  _61
REMARK   31  A    between atoms: _66  and  _68
REMARK   32  A    between atoms: _68  and  _69
REMARK   33  A    between atoms: _68  and  _71
REMARK   34  A    between atoms: _71  and  _72
REMARK   35  A    between atoms: _77  and  _78
REMARK   36  A    between atoms: _80  and  _82
REMARK   37  A    between atoms: _82  and  _83
REMARK   38  A    between atoms: _82  and  _85
REMARK   39  A    between atoms: _85  and  _86
REMARK   40  A    between atoms: _92  and  _93
REMARK   41  A    between atoms: _98  and  _100
REMARK   42  A    between atoms: _100  and  _101
REMARK   43  A    between atoms: _104  and  _106
REMARK   44  A    between atoms: _106  and  _107
REMARK   45  A    between atoms: _106  and  _109
REMARK   46  A    between atoms: _109  and  _110
REMARK   47  A    between atoms: _113  and  _115
REMARK   48  A    between atoms: _115  and  _116
REMARK   49  A    between atoms: _115  and  _118
REMARK   50  A    between atoms: _118  and  _119
REMARK   51  A    between atoms: _124  and  _125
REMARK   52  A    between atoms: _127  and  _129
REMARK   53  A    between atoms: _129  and  _130
REMARK   54  A    between atoms: _129  and  _132
REMARK   55  A    between atoms: _132  and  _133
REMARK   56  A    between atoms: _135  and  _137
REMARK   57  A    between atoms: _137  and  _138
REMARK   58  A    between atoms: _137  and  _140
REMARK   59  A    between atoms: _140  and  _141
REMARK   60  A    between atoms: _144  and  _146
REMARK   61  A    between atoms: _146  and  _147
REMARK   62  A    between atoms: _146  and  _149
REMARK   63  A    between atoms: _149  and  _150
REMARK   64  A    between atoms: _155  and  _157
REMARK   65  A    between atoms: _157  and  _158
REMARK   66  A    between atoms: _157  and  _160
REMARK   67  A    between atoms: _160  and  _161
REMARK   68  A    between atoms: _161  and  _162
REMARK   69  A    between atoms: _166  and  _167
REMARK   70  A    between atoms: _172  and  _174
REMARK   71  A    between atoms: _174  and  _175
REMARK   72  A    between atoms: _174  and  _177
REMARK   73  A    between atoms: _177  and  _178
REMARK   74  A    between atoms: _183  and  _185
REMARK   75  A    between atoms: _185  and  _186
REMARK   76  A    between atoms: _185  and  _188
REMARK   77  A    between atoms: _188  and  _189
REMARK   78  A    between atoms: _194  and  _196
REMARK   79  A    between atoms: _196  and  _197
REMARK   80  A    between atoms: _196  and  _199
REMARK   81  A    between atoms: _199  and  _200
REMARK   82  A    between atoms: _203  and  _205
REMARK   83  A    between atoms: _205  and  _206
REMARK   84  A    between atoms: _208  and  _210
REMARK   85  A    between atoms: _210  and  _211
REMARK   86  A    between atoms: _210  and  _213
REMARK   87  A    between atoms: _213  and  _214
REMARK   88  A    between atoms: _216  and  _218
REMARK   89  A    between atoms: _218  and  _219
REMARK   90  A    between atoms: _218  and  _221
REMARK   91  A    between atoms: _221  and  _222
REMARK   92  A    between atoms: _225  and  _227
REMARK   93  A    between atoms: _227  and  _228
REMARK   94  A    between atoms: _227  and  _230
REMARK   95  A    between atoms: _230  and  _231
REMARK   96  A    between atoms: _231  and  _232
REMARK   97  A    between atoms: _232  and  _233
REMARK   98  A    between atoms: _233  and  _234
REMARK   99  A    between atoms: _238  and  _240
REMARK  100  A    between atoms: _240  and  _241
REMARK  101  A    between atoms: _240  and  _243
REMARK  102  A    between atoms: _243  and  _244
REMARK  103  A    between atoms: _247  and  _249
REMARK  104  A    between atoms: _249  and  _250
REMARK  105  A    between atoms: _252  and  _254
REMARK  106  A    between atoms: _254  and  _255
REMARK  107  A    between atoms: _254  and  _257
REMARK  108  A    between atoms: _257  and  _258
REMARK  109  A    between atoms: _260  and  _262
REMARK  110  A    between atoms: _262  and  _263
REMARK  111  A    between atoms: _265  and  _267
REMARK  112  A    between atoms: _267  and  _268
REMARK  113  A    between atoms: _267  and  _270
REMARK  114  A    between atoms: _270  and  _271
REMARK  115  A    between atoms: _274  and  _276
REMARK  116  A    between atoms: _276  and  _277
REMARK  117  A    between atoms: _276  and  _279
REMARK  118  A    between atoms: _279  and  _280
REMARK  119  A    between atoms: _283  and  _285
REMARK  120  A    between atoms: _285  and  _286
REMARK  121  A    between atoms: _285  and  _288
REMARK  122  A    between atoms: _288  and  _289
REMARK  123  A    between atoms: _294  and  _296
REMARK  124  A    between atoms: _296  and  _297
REMARK  125  A    between atoms: _296  and  _299
REMARK  126  A    between atoms: _299  and  _300
REMARK  127  A    between atoms: _303  and  _305
REMARK  128  A    between atoms: _305  and  _306
REMARK  129  A    between atoms: _305  and  _308
REMARK  130  A    between atoms: _308  and  _309
REMARK  131  A    between atoms: _311  and  _313
REMARK  132  A    between atoms: _313  and  _314
REMARK  133  A    between atoms: _313  and  _316
REMARK  134  A    between atoms: _316  and  _317
REMARK  135  A    between atoms: _317  and  _318
REMARK  136  A    between atoms: _318  and  _319
REMARK  137  A    between atoms: _328  and  _330
REMARK  138  A    between atoms: _330  and  _331
REMARK  139  A    between atoms: _330  and  _333
REMARK  140  A    between atoms: _333  and  _334
REMARK                            x       y       z     vdW  Elec       q    Type
REMARK                         _______ _______ _______ _____ _____    ______ ____
ROOT
ATOM      1  O   HOH     1      -6.247  54.851   7.783  0.00  0.00    +0.000 OA
ENDROOT
TORSDOF 0
REMARK  Name = ../refined-set-2016/3g2z/3g2z_pocket.pdb
REMARK  140 active torsions:
REMARK  status: ('A' for Active; 'I' for Inactive)
REMARK    1  A    between atoms: _1  and  _3
REMARK    2  A    between atoms: _3  and  _4
REMARK    3  A    between atoms: _3  and  _6
REMARK    4  A    between atoms: _6  and  _7
REMARK    5  A    between atoms: _7  and  _8
REMARK    6  A    between atoms: _10  and  _12
REMARK    7  A    between atoms: _12  and  _13
REMARK    8  A    between atoms: _12  and  _15
REMARK    9  A    between atoms: _17  and  _19
REMARK   10  A    between atoms: _19  and  _20
REMARK   11  A    between atoms: _19  and  _22
REMARK   12  A    between atoms: _22  and  _23
REMARK   13  A    between atoms: _25  and  _27
REMARK   14  A    between atoms: _27  and  _28
REMARK   15  A    between atoms: _27  and  _30
REMARK   16  A    between atoms: _30  and  _31
REMARK   17  A    between atoms: _34  and  _36
REMARK   18  A    between atoms: _36  and  _37
REMARK   19  A    between atoms: _36  and  _39
REMARK   20  A    between atoms: _39  and  _40
REMARK   21  A    between atoms: _40  and  _41
REMARK   22  A    between atoms: _41  and  _42
REMARK   23  A    between atoms: _42  and  _43
REMARK   24  A    between atoms: _47  and  _49
REMARK   25  A    between atoms: _49  and  _50
REMARK   26  A    between atoms: _49  and  _52
REMARK   27  A    between atoms: _55  and  _57
REMARK   28  A    between atoms: _57  and  _58
REMARK   29  A    between atoms: _57  and  _60
REMARK   30  A    between atoms: _60  and  _61
REMARK   31  A    between atoms: _66  and  _68
REMARK   32  A    between atoms: _68  and  _69
REMARK   33  A    between atoms: _68  and  _71
REMARK   34  A    between atoms: _71  and  _72
REMARK   35  A    between atoms: _77  and  _78
REMARK   36  A    between atoms: _80  and  _82
REMARK   37  A    between atoms: _82  and  _83
REMARK   38  A    between atoms: _82  and  _85
REMARK   39  A    between atoms: _85  and  _86
REMARK   40  A    between atoms: _92  and  _93
REMARK   41  A    between atoms: _98  and  _100
REMARK   42  A    between atoms: _100  and  _101
REMARK   43  A    between atoms: _104  and  _106
REMARK   44  A    between atoms: _106  and  _107
REMARK   45  A    between atoms: _106  and  _109
REMARK   46  A    between atoms: _109  and  _110
REMARK   47  A    between atoms: _113  and  _115
REMARK   48  A    between atoms: _115  and  _116
REMARK   49  A    between atoms: _115  and  _118
REMARK   50  A    between atoms: _118  and  _119
REMARK   51  A    between atoms: _124  and  _125
REMARK   52  A    between atoms: _127  and  _129
REMARK   53  A    between atoms: _129  and  _130
REMARK   54  A    between atoms: _129  and  _132
REMARK   55  A    between atoms: _132  and  _133
REMARK   56  A    between atoms: _135  and  _137
REMARK   57  A    between atoms: _137  and  _138
REMARK   58  A    between atoms: _137  and  _140
REMARK   59  A    between atoms: _140  and  _141
REMARK   60  A    between atoms: _144  and  _146
REMARK   61  A    between atoms: _146  and  _147
REMARK   62  A    between atoms: _146  and  _149
REMARK   63  A    between atoms: _149  and  _150
REMARK   64  A    between atoms: _155  and  _157
REMARK   65  A    between atoms: _157  and  _158
REMARK   66  A    between atoms: _157  and  _160
REMARK   67  A    between atoms: _160  and  _161
REMARK   68  A    between atoms: _161  and  _162
REMARK   69  A    between atoms: _166  and  _167
REMARK   70  A    between atoms: _172  and  _174
REMARK   71  A    between atoms: _174  and  _175
REMARK   72  A    between atoms: _174  and  _177
REMARK   73  A    between atoms: _177  and  _178
REMARK   74  A    between atoms: _183  and  _185
REMARK   75  A    between atoms: _185  and  _186
REMARK   76  A    between atoms: _185  and  _188
REMARK   77  A    between atoms: _188  and  _189
REMARK   78  A    between atoms: _194  and  _196
REMARK   79  A    between atoms: _196  and  _197
REMARK   80  A    between atoms: _196  and  _199
REMARK   81  A    between atoms: _199  and  _200
REMARK   82  A    between atoms: _203  and  _205
REMARK   83  A    between atoms: _205  and  _206
REMARK   84  A    between atoms: _208  and  _210
REMARK   85  A    between atoms: _210  and  _211
REMARK   86  A    between atoms: _210  and  _213
REMARK   87  A    between atoms: _213  and  _214
REMARK   88  A    between atoms: _216  and  _218
REMARK   89  A    between atoms: _218  and  _219
REMARK   90  A    between atoms: _218  and  _221
REMARK   91  A    between atoms: _221  and  _222
REMARK   92  A    between atoms: _225  and  _227
REMARK   93  A    between atoms: _227  and  _228
REMARK   94  A    between atoms: _227  and  _230
REMARK   95  A    between atoms: _230  and  _231
REMARK   96  A    between atoms: _231  and  _232
REMARK   97  A    between atoms: _232  and  _233
REMARK   98  A    between atoms: _233  and  _234
REMARK   99  A    between atoms: _238  and  _240
REMARK  100  A    between atoms: _240  and  _241
REMARK  101  A    between atoms: _240  and  _243
REMARK  102  A    between atoms: _243  and  _244
REMARK  103  A    between atoms: _247  and  _249
REMARK  104  A    between atoms: _249  and  _250
REMARK  105  A    between atoms: _252  and  _254
REMARK  106  A    between atoms: _254  and  _255
REMARK  107  A    between atoms: _254  and  _257
REMARK  108  A    between atoms: _257  and  _258
REMARK  109  A    between atoms: _260  and  _262
REMARK  110  A    between atoms: _262  and  _263
REMARK  111  A    between atoms: _265  and  _267
REMARK  112  A    between atoms: _267  and  _268
REMARK  113  A    between atoms: _267  and  _270
REMARK  114  A    between atoms: _270  and  _271
REMARK  115  A    between atoms: _274  and  _276
REMARK  116  A    between atoms: _276  and  _277
REMARK  117  A    between atoms: _276  and  _279
REMARK  118  A    between atoms: _279  and  _280
REMARK  119  A    between atoms: _283  and  _285
REMARK  120  A    between atoms: _285  and  _286
REMARK  121  A    between atoms: _285  and  _288
REMARK  122  A    between atoms: _288  and  _289
REMARK  123  A    between atoms: _294  and  _296
REMARK  124  A    between atoms: _296  and  _297
REMARK  125  A    between atoms: _296  and  _299
REMARK  126  A    between atoms: _299  and  _300
REMARK  127  A    between atoms: _303  and  _305
REMARK  128  A    between atoms: _305  and  _306
REMARK  129  A    between atoms: _305  and  _308
REMARK  130  A    between atoms: _308  and  _309
REMARK  131  A    between atoms: _311  and  _313
REMARK  132  A    between atoms: _313  and  _314
REMARK  133  A    between atoms: _313  and  _316
REMARK  134  A    between atoms: _316  and  _317
REMARK  135  A    between atoms: _317  and  _318
REMARK  136  A    between atoms: _318  and  _319
REMARK  137  A    between atoms: _328  and  _330
REMARK  138  A    between atoms: _330  and  _331
REMARK  139  A    between atoms: _330  and  _333
REMARK  140  A    between atoms: _333  and  _334
REMARK                            x       y       z     vdW  Elec       q    Type
REMARK                         _______ _______ _______ _____ _____    ______ ____
ROOT
ATOM      1  O   HOH     1      -4.969  53.483  15.547  0.00  0.00    +0.000 OA
ENDROOT
TORSDOF 0
REMARK  Name = ../refined-set-2016/3g2z/3g2z_pocket.pdb
REMARK  140 active torsions:
REMARK  status: ('A' for Active; 'I' for Inactive)
REMARK    1  A    between atoms: _1  and  _3
REMARK    2  A    between atoms: _3  and  _4
REMARK    3  A    between atoms: _3  and  _6
REMARK    4  A    between atoms: _6  and  _7
REMARK    5  A    between atoms: _7  and  _8
REMARK    6  A    between atoms: _10  and  _12
REMARK    7  A    between atoms: _12  and  _13
REMARK    8  A    between atoms: _12  and  _15
REMARK    9  A    between atoms: _17  and  _19
REMARK   10  A    between atoms: _19  and  _20
REMARK   11  A    between atoms: _19  and  _22
REMARK   12  A    between atoms: _22  and  _23
REMARK   13  A    between atoms: _25  and  _27
REMARK   14  A    between atoms: _27  and  _28
REMARK   15  A    between atoms: _27  and  _30
REMARK   16  A    between atoms: _30  and  _31
REMARK   17  A    between atoms: _34  and  _36
REMARK   18  A    between atoms: _36  and  _37
REMARK   19  A    between atoms: _36  and  _39
REMARK   20  A    between atoms: _39  and  _40
REMARK   21  A    between atoms: _40  and  _41
REMARK   22  A    between atoms: _41  and  _42
REMARK   23  A    between atoms: _42  and  _43
REMARK   24  A    between atoms: _47  and  _49
REMARK   25  A    between atoms: _49  and  _50
REMARK   26  A    between atoms: _49  and  _52
REMARK   27  A    between atoms: _55  and  _57
REMARK   28  A    between atoms: _57  and  _58
REMARK   29  A    between atoms: _57  and  _60
REMARK   30  A    between atoms: _60  and  _61
REMARK   31  A    between atoms: _66  and  _68
REMARK   32  A    between atoms: _68  and  _69
REMARK   33  A    between atoms: _68  and  _71
REMARK   34  A    between atoms: _71  and  _72
REMARK   35  A    between atoms: _77  and  _78
REMARK   36  A    between atoms: _80  and  _82
REMARK   37  A    between atoms: _82  and  _83
REMARK   38  A    between atoms: _82  and  _85
REMARK   39  A    between atoms: _85  and  _86
REMARK   40  A    between atoms: _92  and  _93
REMARK   41  A    between atoms: _98  and  _100
REMARK   42  A    between atoms: _100  and  _101
REMARK   43  A    between atoms: _104  and  _106
REMARK   44  A    between atoms: _106  and  _107
REMARK   45  A    between atoms: _106  and  _109
REMARK   46  A    between atoms: _109  and  _110
REMARK   47  A    between atoms: _113  and  _115
REMARK   48  A    between atoms: _115  and  _116
REMARK   49  A    between atoms: _115  and  _118
REMARK   50  A    between atoms: _118  and  _119
REMARK   51  A    between atoms: _124  and  _125
REMARK   52  A    between atoms: _127  and  _129
REMARK   53  A    between atoms: _129  and  _130
REMARK   54  A    between atoms: _129  and  _132
REMARK   55  A    between atoms: _132  and  _133
REMARK   56  A    between atoms: _135  and  _137
REMARK   57  A    between atoms: _137  and  _138
REMARK   58  A    between atoms: _137  and  _140
REMARK   59  A    between atoms: _140  and  _141
REMARK   60  A    between atoms: _144  and  _146
REMARK   61  A    between atoms: _146  and  _147
REMARK   62  A    between atoms: _146  and  _149
REMARK   63  A    between atoms: _149  and  _150
REMARK   64  A    between atoms: _155  and  _157
REMARK   65  A    between atoms: _157  and  _158
REMARK   66  A    between atoms: _157  and  _160
REMARK   67  A    between atoms: _160  and  _161
REMARK   68  A    between atoms: _161  and  _162
REMARK   69  A    between atoms: _166  and  _167
REMARK   70  A    between atoms: _172  and  _174
REMARK   71  A    between atoms: _174  and  _175
REMARK   72  A    between atoms: _174  and  _177
REMARK   73  A    between atoms: _177  and  _178
REMARK   74  A    between atoms: _183  and  _185
REMARK   75  A    between atoms: _185  and  _186
REMARK   76  A    between atoms: _185  and  _188
REMARK   77  A    between atoms: _188  and  _189
REMARK   78  A    between atoms: _194  and  _196
REMARK   79  A    between atoms: _196  and  _197
REMARK   80  A    between atoms: _196  and  _199
REMARK   81  A    between atoms: _199  and  _200
REMARK   82  A    between atoms: _203  and  _205
REMARK   83  A    between atoms: _205  and  _206
REMARK   84  A    between atoms: _208  and  _210
REMARK   85  A    between atoms: _210  and  _211
REMARK   86  A    between atoms: _210  and  _213
REMARK   87  A    between atoms: _213  and  _214
REMARK   88  A    between atoms: _216  and  _218
REMARK   89  A    between atoms: _218  and  _219
REMARK   90  A    between atoms: _218  and  _221
REMARK   91  A    between atoms: _221  and  _222
REMARK   92  A    between atoms: _225  and  _227
REMARK   93  A    between atoms: _227  and  _228
REMARK   94  A    between atoms: _227  and  _230
REMARK   95  A    between atoms: _230  and  _231
REMARK   96  A    between atoms: _231  and  _232
REMARK   97  A    between atoms: _232  and  _233
REMARK   98  A    between atoms: _233  and  _234
REMARK   99  A    between atoms: _238  and  _240
REMARK  100  A    between atoms: _240  and  _241
REMARK  101  A    between atoms: _240  and  _243
REMARK  102  A    between atoms: _243  and  _244
REMARK  103  A    between atoms: _247  and  _249
REMARK  104  A    between atoms: _249  and  _250
REMARK  105  A    between atoms: _252  and  _254
REMARK  106  A    between atoms: _254  and  _255
REMARK  107  A    between atoms: _254  and  _257
REMARK  108  A    between atoms: _257  and  _258
REMARK  109  A    between atoms: _260  and  _262
REMARK  110  A    between atoms: _262  and  _263
REMARK  111  A    between atoms: _265  and  _267
REMARK  112  A    between atoms: _267  and  _268
REMARK  113  A    between atoms: _267  and  _270
REMARK  114  A    between atoms: _270  and  _271
REMARK  115  A    between atoms: _274  and  _276
REMARK  116  A    between atoms: _276  and  _277
REMARK  117  A    between atoms: _276  and  _279
REMARK  118  A    between atoms: _279  and  _280
REMARK  119  A    between atoms: _283  and  _285
REMARK  120  A    between atoms: _285  and  _286
REMARK  121  A    between atoms: _285  and  _288
REMARK  122  A    between atoms: _288  and  _289
REMARK  123  A    between atoms: _294  and  _296
REMARK  124  A    between atoms: _296  and  _297
REMARK  125  A    between atoms: _296  and  _299
REMARK  126  A    between atoms: _299  and  _300
REMARK  127  A    between atoms: _303  and  _305
REMARK  128  A    between atoms: _305  and  _306
REMARK  129  A    between atoms: _305  and  _308
REMARK  130  A    between atoms: _308  and  _309
REMARK  131  A    between atoms: _311  and  _313
REMARK  132  A    between atoms: _313  and  _314
REMARK  133  A    between atoms: _313  and  _316
REMARK  134  A    between atoms: _316  and  _317
REMARK  135  A    between atoms: _317  and  _318
REMARK  136  A    between atoms: _318  and  _319
REMARK  137  A    between atoms: _328  and  _330
REMARK  138  A    between atoms: _330  and  _331
REMARK  139  A    between atoms: _330  and  _333
REMARK  140  A    between atoms: _333  and  _334
REMARK                            x       y       z     vdW  Elec       q    Type
REMARK                         _______ _______ _______ _____ _____    ______ ____
ROOT
ATOM      1  O   HOH     1      -6.437  55.660  14.823  0.00  0.00    +0.000 OA
ENDROOT
TORSDOF 0
REMARK  Name = ../refined-set-2016/3g2z/3g2z_pocket.pdb
REMARK  140 active torsions:
REMARK  status: ('A' for Active; 'I' for Inactive)
REMARK    1  A    between atoms: _1  and  _3
REMARK    2  A    between atoms: _3  and  _4
REMARK    3  A    between atoms: _3  and  _6
REMARK    4  A    between atoms: _6  and  _7
REMARK    5  A    between atoms: _7  and  _8
REMARK    6  A    between atoms: _10  and  _12
REMARK    7  A    between atoms: _12  and  _13
REMARK    8  A    between atoms: _12  and  _15
REMARK    9  A    between atoms: _17  and  _19
REMARK   10  A    between atoms: _19  and  _20
REMARK   11  A    between atoms: _19  and  _22
REMARK   12  A    between atoms: _22  and  _23
REMARK   13  A    between atoms: _25  and  _27
REMARK   14  A    between atoms: _27  and  _28
REMARK   15  A    between atoms: _27  and  _30
REMARK   16  A    between atoms: _30  and  _31
REMARK   17  A    between atoms: _34  and  _36
REMARK   18  A    between atoms: _36  and  _37
REMARK   19  A    between atoms: _36  and  _39
REMARK   20  A    between atoms: _39  and  _40
REMARK   21  A    between atoms: _40  and  _41
REMARK   22  A    between atoms: _41  and  _42
REMARK   23  A    between atoms: _42  and  _43
REMARK   24  A    between atoms: _47  and  _49
REMARK   25  A    between atoms: _49  and  _50
REMARK   26  A    between atoms: _49  and  _52
REMARK   27  A    between atoms: _55  and  _57
REMARK   28  A    between atoms: _57  and  _58
REMARK   29  A    between atoms: _57  and  _60
REMARK   30  A    between atoms: _60  and  _61
REMARK   31  A    between atoms: _66  and  _68
REMARK   32  A    between atoms: _68  and  _69
REMARK   33  A    between atoms: _68  and  _71
REMARK   34  A    between atoms: _71  and  _72
REMARK   35  A    between atoms: _77  and  _78
REMARK   36  A    between atoms: _80  and  _82
REMARK   37  A    between atoms: _82  and  _83
REMARK   38  A    between atoms: _82  and  _85
REMARK   39  A    between atoms: _85  and  _86
REMARK   40  A    between atoms: _92  and  _93
REMARK   41  A    between atoms: _98  and  _100
REMARK   42  A    between atoms: _100  and  _101
REMARK   43  A    between atoms: _104  and  _106
REMARK   44  A    between atoms: _106  and  _107
REMARK   45  A    between atoms: _106  and  _109
REMARK   46  A    between atoms: _109  and  _110
REMARK   47  A    between atoms: _113  and  _115
REMARK   48  A    between atoms: _115  and  _116
REMARK   49  A    between atoms: _115  and  _118
REMARK   50  A    between atoms: _118  and  _119
REMARK   51  A    between atoms: _124  and  _125
REMARK   52  A    between atoms: _127  and  _129
REMARK   53  A    between atoms: _129  and  _130
REMARK   54  A    between atoms: _129  and  _132
REMARK   55  A    between atoms: _132  and  _133
REMARK   56  A    between atoms: _135  and  _137
REMARK   57  A    between atoms: _137  and  _138
REMARK   58  A    between atoms: _137  and  _140
REMARK   59  A    between atoms: _140  and  _141
REMARK   60  A    between atoms: _144  and  _146
REMARK   61  A    between atoms: _146  and  _147
REMARK   62  A    between atoms: _146  and  _149
REMARK   63  A    between atoms: _149  and  _150
REMARK   64  A    between atoms: _155  and  _157
REMARK   65  A    between atoms: _157  and  _158
REMARK   66  A    between atoms: _157  and  _160
REMARK   67  A    between atoms: _160  and  _161
REMARK   68  A    between atoms: _161  and  _162
REMARK   69  A    between atoms: _166  and  _167
REMARK   70  A    between atoms: _172  and  _174
REMARK   71  A    between atoms: _174  and  _175
REMARK   72  A    between atoms: _174  and  _177
REMARK   73  A    between atoms: _177  and  _178
REMARK   74  A    between atoms: _183  and  _185
REMARK   75  A    between atoms: _185  and  _186
REMARK   76  A    between atoms: _185  and  _188
REMARK   77  A    between atoms: _188  and  _189
REMARK   78  A    between atoms: _194  and  _196
REMARK   79  A    between atoms: _196  and  _197
REMARK   80  A    between atoms: _196  and  _199
REMARK   81  A    between atoms: _199  and  _200
REMARK   82  A    between atoms: _203  and  _205
REMARK   83  A    between atoms: _205  and  _206
REMARK   84  A    between atoms: _208  and  _210
REMARK   85  A    between atoms: _210  and  _211
REMARK   86  A    between atoms: _210  and  _213
REMARK   87  A    between atoms: _213  and  _214
REMARK   88  A    between atoms: _216  and  _218
REMARK   89  A    between atoms: _218  and  _219
REMARK   90  A    between atoms: _218  and  _221
REMARK   91  A    between atoms: _221  and  _222
REMARK   92  A    between atoms: _225  and  _227
REMARK   93  A    between atoms: _227  and  _228
REMARK   94  A    between atoms: _227  and  _230
REMARK   95  A    between atoms: _230  and  _231
REMARK   96  A    between atoms: _231  and  _232
REMARK   97  A    between atoms: _232  and  _233
REMARK   98  A    between atoms: _233  and  _234
REMARK   99  A    between atoms: _238  and  _240
REMARK  100  A    between atoms: _240  and  _241
REMARK  101  A    between atoms: _240  and  _243
REMARK  102  A    between atoms: _243  and  _244
REMARK  103  A    between atoms: _247  and  _249
REMARK  104  A    between atoms: _249  and  _250
REMARK  105  A    between atoms: _252  and  _254
REMARK  106  A    between atoms: _254  and  _255
REMARK  107  A    between atoms: _254  and  _257
REMARK  108  A    between atoms: _257  and  _258
REMARK  109  A    between atoms: _260  and  _262
REMARK  110  A    between atoms: _262  and  _263
REMARK  111  A    between atoms: _265  and  _267
REMARK  112  A    between atoms: _267  and  _268
REMARK  113  A    between atoms: _267  and  _270
REMARK  114  A    between atoms: _270  and  _271
REMARK  115  A    between atoms: _274  and  _276
REMARK  116  A    between atoms: _276  and  _277
REMARK  117  A    between atoms: _276  and  _279
REMARK  118  A    between atoms: _279  and  _280
REMARK  119  A    between atoms: _283  and  _285
REMARK  120  A    between atoms: _285  and  _286
REMARK  121  A    between atoms: _285  and  _288
REMARK  122  A    between atoms: _288  and  _289
REMARK  123  A    between atoms: _294  and  _296
REMARK  124  A    between atoms: _296  and  _297
REMARK  125  A    between atoms: _296  and  _299
REMARK  126  A    between atoms: _299  and  _300
REMARK  127  A    between atoms: _303  and  _305
REMARK  128  A    between atoms: _305  and  _306
REMARK  129  A    between atoms: _305  and  _308
REMARK  130  A    between atoms: _308  and  _309
REMARK  131  A    between atoms: _311  and  _313
REMARK  132  A    between atoms: _313  and  _314
REMARK  133  A    between atoms: _313  and  _316
REMARK  134  A    between atoms: _316  and  _317
REMARK  135  A    between atoms: _317  and  _318
REMARK  136  A    between atoms: _318  and  _319
REMARK  137  A    between atoms: _328  and  _330
REMARK  138  A    between atoms: _330  and  _331
REMARK  139  A    between atoms: _330  and  _333
REMARK  140  A    between atoms: _333  and  _334
REMARK                            x       y       z     vdW  Elec       q    Type
REMARK                         _______ _______ _______ _____ _____    ______ ____
ROOT
ATOM      1  O   HOH     1      -8.682  55.928  13.721  0.00  0.00    +0.000 OA
ENDROOT
TORSDOF 0
REMARK  Name = ../refined-set-2016/3g2z/3g2z_pocket.pdb
REMARK  140 active torsions:
REMARK  status: ('A' for Active; 'I' for Inactive)
REMARK    1  A    between atoms: _1  and  _3
REMARK    2  A    between atoms: _3  and  _4
REMARK    3  A    between atoms: _3  and  _6
REMARK    4  A    between atoms: _6  and  _7
REMARK    5  A    between atoms: _7  and  _8
REMARK    6  A    between atoms: _10  and  _12
REMARK    7  A    between atoms: _12  and  _13
REMARK    8  A    between atoms: _12  and  _15
REMARK    9  A    between atoms: _17  and  _19
REMARK   10  A    between atoms: _19  and  _20
REMARK   11  A    between atoms: _19  and  _22
REMARK   12  A    between atoms: _22  and  _23
REMARK   13  A    between atoms: _25  and  _27
REMARK   14  A    between atoms: _27  and  _28
REMARK   15  A    between atoms: _27  and  _30
REMARK   16  A    between atoms: _30  and  _31
REMARK   17  A    between atoms: _34  and  _36
REMARK   18  A    between atoms: _36  and  _37
REMARK   19  A    between atoms: _36  and  _39
REMARK   20  A    between atoms: _39  and  _40
REMARK   21  A    between atoms: _40  and  _41
REMARK   22  A    between atoms: _41  and  _42
REMARK   23  A    between atoms: _42  and  _43
REMARK   24  A    between atoms: _47  and  _49
REMARK   25  A    between atoms: _49  and  _50
REMARK   26  A    between atoms: _49  and  _52
REMARK   27  A    between atoms: _55  and  _57
REMARK   28  A    between atoms: _57  and  _58
REMARK   29  A    between atoms: _57  and  _60
REMARK   30  A    between atoms: _60  and  _61
REMARK   31  A    between atoms: _66  and  _68
REMARK   32  A    between atoms: _68  and  _69
REMARK   33  A    between atoms: _68  and  _71
REMARK   34  A    between atoms: _71  and  _72
REMARK   35  A    between atoms: _77  and  _78
REMARK   36  A    between atoms: _80  and  _82
REMARK   37  A    between atoms: _82  and  _83
REMARK   38  A    between atoms: _82  and  _85
REMARK   39  A    between atoms: _85  and  _86
REMARK   40  A    between atoms: _92  and  _93
REMARK   41  A    between atoms: _98  and  _100
REMARK   42  A    between atoms: _100  and  _101
REMARK   43  A    between atoms: _104  and  _106
REMARK   44  A    between atoms: _106  and  _107
REMARK   45  A    between atoms: _106  and  _109
REMARK   46  A    between atoms: _109  and  _110
REMARK   47  A    between atoms: _113  and  _115
REMARK   48  A    between atoms: _115  and  _116
REMARK   49  A    between atoms: _115  and  _118
REMARK   50  A    between atoms: _118  and  _119
REMARK   51  A    between atoms: _124  and  _125
REMARK   52  A    between atoms: _127  and  _129
REMARK   53  A    between atoms: _129  and  _130
REMARK   54  A    between atoms: _129  and  _132
REMARK   55  A    between atoms: _132  and  _133
REMARK   56  A    between atoms: _135  and  _137
REMARK   57  A    between atoms: _137  and  _138
REMARK   58  A    between atoms: _137  and  _140
REMARK   59  A    between atoms: _140  and  _141
REMARK   60  A    between atoms: _144  and  _146
REMARK   61  A    between atoms: _146  and  _147
REMARK   62  A    between atoms: _146  and  _149
REMARK   63  A    between atoms: _149  and  _150
REMARK   64  A    between atoms: _155  and  _157
REMARK   65  A    between atoms: _157  and  _158
REMARK   66  A    between atoms: _157  and  _160
REMARK   67  A    between atoms: _160  and  _161
REMARK   68  A    between atoms: _161  and  _162
REMARK   69  A    between atoms: _166  and  _167
REMARK   70  A    between atoms: _172  and  _174
REMARK   71  A    between atoms: _174  and  _175
REMARK   72  A    between atoms: _174  and  _177
REMARK   73  A    between atoms: _177  and  _178
REMARK   74  A    between atoms: _183  and  _185
REMARK   75  A    between atoms: _185  and  _186
REMARK   76  A    between atoms: _185  and  _188
REMARK   77  A    between atoms: _188  and  _189
REMARK   78  A    between atoms: _194  and  _196
REMARK   79  A    between atoms: _196  and  _197
REMARK   80  A    between atoms: _196  and  _199
REMARK   81  A    between atoms: _199  and  _200
REMARK   82  A    between atoms: _203  and  _205
REMARK   83  A    between atoms: _205  and  _206
REMARK   84  A    between atoms: _208  and  _210
REMARK   85  A    between atoms: _210  and  _211
REMARK   86  A    between atoms: _210  and  _213
REMARK   87  A    between atoms: _213  and  _214
REMARK   88  A    between atoms: _216  and  _218
REMARK   89  A    between atoms: _218  and  _219
REMARK   90  A    between atoms: _218  and  _221
REMARK   91  A    between atoms: _221  and  _222
REMARK   92  A    between atoms: _225  and  _227
REMARK   93  A    between atoms: _227  and  _228
REMARK   94  A    between atoms: _227  and  _230
REMARK   95  A    between atoms: _230  and  _231
REMARK   96  A    between atoms: _231  and  _232
REMARK   97  A    between atoms: _232  and  _233
REMARK   98  A    between atoms: _233  and  _234
REMARK   99  A    between atoms: _238  and  _240
REMARK  100  A    between atoms: _240  and  _241
REMARK  101  A    between atoms: _240  and  _243
REMARK  102  A    between atoms: _243  and  _244
REMARK  103  A    between atoms: _247  and  _249
REMARK  104  A    between atoms: _249  and  _250
REMARK  105  A    between atoms: _252  and  _254
REMARK  106  A    between atoms: _254  and  _255
REMARK  107  A    between atoms: _254  and  _257
REMARK  108  A    between atoms: _257  and  _258
REMARK  109  A    between atoms: _260  and  _262
REMARK  110  A    between atoms: _262  and  _263
REMARK  111  A    between atoms: _265  and  _267
REMARK  112  A    between atoms: _267  and  _268
REMARK  113  A    between atoms: _267  and  _270
REMARK  114  A    between atoms: _270  and  _271
REMARK  115  A    between atoms: _274  and  _276
REMARK  116  A    between atoms: _276  and  _277
REMARK  117  A    between atoms: _276  and  _279
REMARK  118  A    between atoms: _279  and  _280
REMARK  119  A    between atoms: _283  and  _285
REMARK  120  A    between atoms: _285  and  _286
REMARK  121  A    between atoms: _285  and  _288
REMARK  122  A    between atoms: _288  and  _289
REMARK  123  A    between atoms: _294  and  _296
REMARK  124  A    between atoms: _296  and  _297
REMARK  125  A    between atoms: _296  and  _299
REMARK  126  A    between atoms: _299  and  _300
REMARK  127  A    between atoms: _303  and  _305
REMARK  128  A    between atoms: _305  and  _306
REMARK  129  A    between atoms: _305  and  _308
REMARK  130  A    between atoms: _308  and  _309
REMARK  131  A    between atoms: _311  and  _313
REMARK  132  A    between atoms: _313  and  _314
REMARK  133  A    between atoms: _313  and  _316
REMARK  134  A    between atoms: _316  and  _317
REMARK  135  A    between atoms: _317  and  _318
REMARK  136  A    between atoms: _318  and  _319
REMARK  137  A    between atoms: _328  and  _330
REMARK  138  A    between atoms: _330  and  _331
REMARK  139  A    between atoms: _330  and  _333
REMARK  140  A    between atoms: _333  and  _334
REMARK                            x       y       z     vdW  Elec       q    Type
REMARK                         _______ _______ _______ _____ _____    ______ ____
ROOT
ATOM      1  O   HOH     1       1.068  50.432   9.802  0.00  0.00    +0.000 OA
ENDROOT
TORSDOF 0
REMARK  Name = ../refined-set-2016/3g2z/3g2z_pocket.pdb
REMARK  140 active torsions:
REMARK  status: ('A' for Active; 'I' for Inactive)
REMARK    1  A    between atoms: _1  and  _3
REMARK    2  A    between atoms: _3  and  _4
REMARK    3  A    between atoms: _3  and  _6
REMARK    4  A    between atoms: _6  and  _7
REMARK    5  A    between atoms: _7  and  _8
REMARK    6  A    between atoms: _10  and  _12
REMARK    7  A    between atoms: _12  and  _13
REMARK    8  A    between atoms: _12  and  _15
REMARK    9  A    between atoms: _17  and  _19
REMARK   10  A    between atoms: _19  and  _20
REMARK   11  A    between atoms: _19  and  _22
REMARK   12  A    between atoms: _22  and  _23
REMARK   13  A    between atoms: _25  and  _27
REMARK   14  A    between atoms: _27  and  _28
REMARK   15  A    between atoms: _27  and  _30
REMARK   16  A    between atoms: _30  and  _31
REMARK   17  A    between atoms: _34  and  _36
REMARK   18  A    between atoms: _36  and  _37
REMARK   19  A    between atoms: _36  and  _39
REMARK   20  A    between atoms: _39  and  _40
REMARK   21  A    between atoms: _40  and  _41
REMARK   22  A    between atoms: _41  and  _42
REMARK   23  A    between atoms: _42  and  _43
REMARK   24  A    between atoms: _47  and  _49
REMARK   25  A    between atoms: _49  and  _50
REMARK   26  A    between atoms: _49  and  _52
REMARK   27  A    between atoms: _55  and  _57
REMARK   28  A    between atoms: _57  and  _58
REMARK   29  A    between atoms: _57  and  _60
REMARK   30  A    between atoms: _60  and  _61
REMARK   31  A    between atoms: _66  and  _68
REMARK   32  A    between atoms: _68  and  _69
REMARK   33  A    between atoms: _68  and  _71
REMARK   34  A    between atoms: _71  and  _72
REMARK   35  A    between atoms: _77  and  _78
REMARK   36  A    between atoms: _80  and  _82
REMARK   37  A    between atoms: _82  and  _83
REMARK   38  A    between atoms: _82  and  _85
REMARK   39  A    between atoms: _85  and  _86
REMARK   40  A    between atoms: _92  and  _93
REMARK   41  A    between atoms: _98  and  _100
REMARK   42  A    between atoms: _100  and  _101
REMARK   43  A    between atoms: _104  and  _106
REMARK   44  A    between atoms: _106  and  _107
REMARK   45  A    between atoms: _106  and  _109
REMARK   46  A    between atoms: _109  and  _110
REMARK   47  A    between atoms: _113  and  _115
REMARK   48  A    between atoms: _115  and  _116
REMARK   49  A    between atoms: _115  and  _118
REMARK   50  A    between atoms: _118  and  _119
REMARK   51  A    between atoms: _124  and  _125
REMARK   52  A    between atoms: _127  and  _129
REMARK   53  A    between atoms: _129  and  _130
REMARK   54  A    between atoms: _129  and  _132
REMARK   55  A    between atoms: _132  and  _133
REMARK   56  A    between atoms: _135  and  _137
REMARK   57  A    between atoms: _137  and  _138
REMARK   58  A    between atoms: _137  and  _140
REMARK   59  A    between atoms: _140  and  _141
REMARK   60  A    between atoms: _144  and  _146
REMARK   61  A    between atoms: _146  and  _147
REMARK   62  A    between atoms: _146  and  _149
REMARK   63  A    between atoms: _149  and  _150
REMARK   64  A    between atoms: _155  and  _157
REMARK   65  A    between atoms: _157  and  _158
REMARK   66  A    between atoms: _157  and  _160
REMARK   67  A    between atoms: _160  and  _161
REMARK   68  A    between atoms: _161  and  _162
REMARK   69  A    between atoms: _166  and  _167
REMARK   70  A    between atoms: _172  and  _174
REMARK   71  A    between atoms: _174  and  _175
REMARK   72  A    between atoms: _174  and  _177
REMARK   73  A    between atoms: _177  and  _178
REMARK   74  A    between atoms: _183  and  _185
REMARK   75  A    between atoms: _185  and  _186
REMARK   76  A    between atoms: _185  and  _188
REMARK   77  A    between atoms: _188  and  _189
REMARK   78  A    between atoms: _194  and  _196
REMARK   79  A    between atoms: _196  and  _197
REMARK   80  A    between atoms: _196  and  _199
REMARK   81  A    between atoms: _199  and  _200
REMARK   82  A    between atoms: _203  and  _205
REMARK   83  A    between atoms: _205  and  _206
REMARK   84  A    between atoms: _208  and  _210
REMARK   85  A    between atoms: _210  and  _211
REMARK   86  A    between atoms: _210  and  _213
REMARK   87  A    between atoms: _213  and  _214
REMARK   88  A    between atoms: _216  and  _218
REMARK   89  A    between atoms: _218  and  _219
REMARK   90  A    between atoms: _218  and  _221
REMARK   91  A    between atoms: _221  and  _222
REMARK   92  A    between atoms: _225  and  _227
REMARK   93  A    between atoms: _227  and  _228
REMARK   94  A    between atoms: _227  and  _230
REMARK   95  A    between atoms: _230  and  _231
REMARK   96  A    between atoms: _231  and  _232
REMARK   97  A    between atoms: _232  and  _233
REMARK   98  A    between atoms: _233  and  _234
REMARK   99  A    between atoms: _238  and  _240
REMARK  100  A    between atoms: _240  and  _241
REMARK  101  A    between atoms: _240  and  _243
REMARK  102  A    between atoms: _243  and  _244
REMARK  103  A    between atoms: _247  and  _249
REMARK  104  A    between atoms: _249  and  _250
REMARK  105  A    between atoms: _252  and  _254
REMARK  106  A    between atoms: _254  and  _255
REMARK  107  A    between atoms: _254  and  _257
REMARK  108  A    between atoms: _257  and  _258
REMARK  109  A    between atoms: _260  and  _262
REMARK  110  A    between atoms: _262  and  _263
REMARK  111  A    between atoms: _265  and  _267
REMARK  112  A    between atoms: _267  and  _268
REMARK  113  A    between atoms: _267  and  _270
REMARK  114  A    between atoms: _270  and  _271
REMARK  115  A    between atoms: _274  and  _276
REMARK  116  A    between atoms: _276  and  _277
REMARK  117  A    between atoms: _276  and  _279
REMARK  118  A    between atoms: _279  and  _280
REMARK  119  A    between atoms: _283  and  _285
REMARK  120  A    between atoms: _285  and  _286
REMARK  121  A    between atoms: _285  and  _288
REMARK  122  A    between atoms: _288  and  _289
REMARK  123  A    between atoms: _294  and  _296
REMARK  124  A    between atoms: _296  and  _297
REMARK  125  A    between atoms: _296  and  _299
REMARK  126  A    between atoms: _299  and  _300
REMARK  127  A    between atoms: _303  and  _305
REMARK  128  A    between atoms: _305  and  _306
REMARK  129  A    between atoms: _305  and  _308
REMARK  130  A    between atoms: _308  and  _309
REMARK  131  A    between atoms: _311  and  _313
REMARK  132  A    between atoms: _313  and  _314
REMARK  133  A    between atoms: _313  and  _316
REMARK  134  A    between atoms: _316  and  _317
REMARK  135  A    between atoms: _317  and  _318
REMARK  136  A    between atoms: _318  and  _319
REMARK  137  A    between atoms: _328  and  _330
REMARK  138  A    between atoms: _330  and  _331
REMARK  139  A    between atoms: _330  and  _333
REMARK  140  A    between atoms: _333  and  _334
REMARK                            x       y       z     vdW  Elec       q    Type
REMARK                         _______ _______ _______ _____ _____    ______ ____
ROOT
ATOM      1  O   HOH     1       0.012  46.463  11.844  0.00  0.00    +0.000 OA
ENDROOT
TORSDOF 0
REMARK  Name = ../refined-set-2016/3g2z/3g2z_pocket.pdb
REMARK  140 active torsions:
REMARK  status: ('A' for Active; 'I' for Inactive)
REMARK    1  A    between atoms: _1  and  _3
REMARK    2  A    between atoms: _3  and  _4
REMARK    3  A    between atoms: _3  and  _6
REMARK    4  A    between atoms: _6  and  _7
REMARK    5  A    between atoms: _7  and  _8
REMARK    6  A    between atoms: _10  and  _12
REMARK    7  A    between atoms: _12  and  _13
REMARK    8  A    between atoms: _12  and  _15
REMARK    9  A    between atoms: _17  and  _19
REMARK   10  A    between atoms: _19  and  _20
REMARK   11  A    between atoms: _19  and  _22
REMARK   12  A    between atoms: _22  and  _23
REMARK   13  A    between atoms: _25  and  _27
REMARK   14  A    between atoms: _27  and  _28
REMARK   15  A    between atoms: _27  and  _30
REMARK   16  A    between atoms: _30  and  _31
REMARK   17  A    between atoms: _34  and  _36
REMARK   18  A    between atoms: _36  and  _37
REMARK   19  A    between atoms: _36  and  _39
REMARK   20  A    between atoms: _39  and  _40
REMARK   21  A    between atoms: _40  and  _41
REMARK   22  A    between atoms: _41  and  _42
REMARK   23  A    between atoms: _42  and  _43
REMARK   24  A    between atoms: _47  and  _49
REMARK   25  A    between atoms: _49  and  _50
REMARK   26  A    between atoms: _49  and  _52
REMARK   27  A    between atoms: _55  and  _57
REMARK   28  A    between atoms: _57  and  _58
REMARK   29  A    between atoms: _57  and  _60
REMARK   30  A    between atoms: _60  and  _61
REMARK   31  A    between atoms: _66  and  _68
REMARK   32  A    between atoms: _68  and  _69
REMARK   33  A    between atoms: _68  and  _71
REMARK   34  A    between atoms: _71  and  _72
REMARK   35  A    between atoms: _77  and  _78
REMARK   36  A    between atoms: _80  and  _82
REMARK   37  A    between atoms: _82  and  _83
REMARK   38  A    between atoms: _82  and  _85
REMARK   39  A    between atoms: _85  and  _86
REMARK   40  A    between atoms: _92  and  _93
REMARK   41  A    between atoms: _98  and  _100
REMARK   42  A    between atoms: _100  and  _101
REMARK   43  A    between atoms: _104  and  _106
REMARK   44  A    between atoms: _106  and  _107
REMARK   45  A    between atoms: _106  and  _109
REMARK   46  A    between atoms: _109  and  _110
REMARK   47  A    between atoms: _113  and  _115
REMARK   48  A    between atoms: _115  and  _116
REMARK   49  A    between atoms: _115  and  _118
REMARK   50  A    between atoms: _118  and  _119
REMARK   51  A    between atoms: _124  and  _125
REMARK   52  A    between atoms: _127  and  _129
REMARK   53  A    between atoms: _129  and  _130
REMARK   54  A    between atoms: _129  and  _132
REMARK   55  A    between atoms: _132  and  _133
REMARK   56  A    between atoms: _135  and  _137
REMARK   57  A    between atoms: _137  and  _138
REMARK   58  A    between atoms: _137  and  _140
REMARK   59  A    between atoms: _140  and  _141
REMARK   60  A    between atoms: _144  and  _146
REMARK   61  A    between atoms: _146  and  _147
REMARK   62  A    between atoms: _146  and  _149
REMARK   63  A    between atoms: _149  and  _150
REMARK   64  A    between atoms: _155  and  _157
REMARK   65  A    between atoms: _157  and  _158
REMARK   66  A    between atoms: _157  and  _160
REMARK   67  A    between atoms: _160  and  _161
REMARK   68  A    between atoms: _161  and  _162
REMARK   69  A    between atoms: _166  and  _167
REMARK   70  A    between atoms: _172  and  _174
REMARK   71  A    between atoms: _174  and  _175
REMARK   72  A    between atoms: _174  and  _177
REMARK   73  A    between atoms: _177  and  _178
REMARK   74  A    between atoms: _183  and  _185
REMARK   75  A    between atoms: _185  and  _186
REMARK   76  A    between atoms: _185  and  _188
REMARK   77  A    between atoms: _188  and  _189
REMARK   78  A    between atoms: _194  and  _196
REMARK   79  A    between atoms: _196  and  _197
REMARK   80  A    between atoms: _196  and  _199
REMARK   81  A    between atoms: _199  and  _200
REMARK   82  A    between atoms: _203  and  _205
REMARK   83  A    between atoms: _205  and  _206
REMARK   84  A    between atoms: _208  and  _210
REMARK   85  A    between atoms: _210  and  _211
REMARK   86  A    between atoms: _210  and  _213
REMARK   87  A    between atoms: _213  and  _214
REMARK   88  A    between atoms: _216  and  _218
REMARK   89  A    between atoms: _218  and  _219
REMARK   90  A    between atoms: _218  and  _221
REMARK   91  A    between atoms: _221  and  _222
REMARK   92  A    between atoms: _225  and  _227
REMARK   93  A    between atoms: _227  and  _228
REMARK   94  A    between atoms: _227  and  _230
REMARK   95  A    between atoms: _230  and  _231
REMARK   96  A    between atoms: _231  and  _232
REMARK   97  A    between atoms: _232  and  _233
REMARK   98  A    between atoms: _233  and  _234
REMARK   99  A    between atoms: _238  and  _240
REMARK  100  A    between atoms: _240  and  _241
REMARK  101  A    between atoms: _240  and  _243
REMARK  102  A    between atoms: _243  and  _244
REMARK  103  A    between atoms: _247  and  _249
REMARK  104  A    between atoms: _249  and  _250
REMARK  105  A    between atoms: _252  and  _254
REMARK  106  A    between atoms: _254  and  _255
REMARK  107  A    between atoms: _254  and  _257
REMARK  108  A    between atoms: _257  and  _258
REMARK  109  A    between atoms: _260  and  _262
REMARK  110  A    between atoms: _262  and  _263
REMARK  111  A    between atoms: _265  and  _267
REMARK  112  A    between atoms: _267  and  _268
REMARK  113  A    between atoms: _267  and  _270
REMARK  114  A    between atoms: _270  and  _271
REMARK  115  A    between atoms: _274  and  _276
REMARK  116  A    between atoms: _276  and  _277
REMARK  117  A    between atoms: _276  and  _279
REMARK  118  A    between atoms: _279  and  _280
REMARK  119  A    between atoms: _283  and  _285
REMARK  120  A    between atoms: _285  and  _286
REMARK  121  A    between atoms: _285  and  _288
REMARK  122  A    between atoms: _288  and  _289
REMARK  123  A    between atoms: _294  and  _296
REMARK  124  A    between atoms: _296  and  _297
REMARK  125  A    between atoms: _296  and  _299
REMARK  126  A    between atoms: _299  and  _300
REMARK  127  A    between atoms: _303  and  _305
REMARK  128  A    between atoms: _305  and  _306
REMARK  129  A    between atoms: _305  and  _308
REMARK  130  A    between atoms: _308  and  _309
REMARK  131  A    between atoms: _311  and  _313
REMARK  132  A    between atoms: _313  and  _314
REMARK  133  A    between atoms: _313  and  _316
REMARK  134  A    between atoms: _316  and  _317
REMARK  135  A    between atoms: _317  and  _318
REMARK  136  A    between atoms: _318  and  _319
REMARK  137  A    between atoms: _328  and  _330
REMARK  138  A    between atoms: _330  and  _331
REMARK  139  A    between atoms: _330  and  _333
REMARK  140  A    between atoms: _333  and  _334
REMARK                            x       y       z     vdW  Elec       q    Type
REMARK                         _______ _______ _______ _____ _____    ______ ____
ROOT
ATOM      1  O   HOH     1      -8.201  51.001   6.896  0.00  0.00    +0.000 OA
ENDROOT
TORSDOF 0
REMARK  Name = ../refined-set-2016/3g2z/3g2z_pocket.pdb
REMARK  140 active torsions:
REMARK  status: ('A' for Active; 'I' for Inactive)
REMARK    1  A    between atoms: _1  and  _3
REMARK    2  A    between atoms: _3  and  _4
REMARK    3  A    between atoms: _3  and  _6
REMARK    4  A    between atoms: _6  and  _7
REMARK    5  A    between atoms: _7  and  _8
REMARK    6  A    between atoms: _10  and  _12
REMARK    7  A    between atoms: _12  and  _13
REMARK    8  A    between atoms: _12  and  _15
REMARK    9  A    between atoms: _17  and  _19
REMARK   10  A    between atoms: _19  and  _20
REMARK   11  A    between atoms: _19  and  _22
REMARK   12  A    between atoms: _22  and  _23
REMARK   13  A    between atoms: _25  and  _27
REMARK   14  A    between atoms: _27  and  _28
REMARK   15  A    between atoms: _27  and  _30
REMARK   16  A    between atoms: _30  and  _31
REMARK   17  A    between atoms: _34  and  _36
REMARK   18  A    between atoms: _36  and  _37
REMARK   19  A    between atoms: _36  and  _39
REMARK   20  A    between atoms: _39  and  _40
REMARK   21  A    between atoms: _40  and  _41
REMARK   22  A    between atoms: _41  and  _42
REMARK   23  A    between atoms: _42  and  _43
REMARK   24  A    between atoms: _47  and  _49
REMARK   25  A    between atoms: _49  and  _50
REMARK   26  A    between atoms: _49  and  _52
REMARK   27  A    between atoms: _55  and  _57
REMARK   28  A    between atoms: _57  and  _58
REMARK   29  A    between atoms: _57  and  _60
REMARK   30  A    between atoms: _60  and  _61
REMARK   31  A    between atoms: _66  and  _68
REMARK   32  A    between atoms: _68  and  _69
REMARK   33  A    between atoms: _68  and  _71
REMARK   34  A    between atoms: _71  and  _72
REMARK   35  A    between atoms: _77  and  _78
REMARK   36  A    between atoms: _80  and  _82
REMARK   37  A    between atoms: _82  and  _83
REMARK   38  A    between atoms: _82  and  _85
REMARK   39  A    between atoms: _85  and  _86
REMARK   40  A    between atoms: _92  and  _93
REMARK   41  A    between atoms: _98  and  _100
REMARK   42  A    between atoms: _100  and  _101
REMARK   43  A    between atoms: _104  and  _106
REMARK   44  A    between atoms: _106  and  _107
REMARK   45  A    between atoms: _106  and  _109
REMARK   46  A    between atoms: _109  and  _110
REMARK   47  A    between atoms: _113  and  _115
REMARK   48  A    between atoms: _115  and  _116
REMARK   49  A    between atoms: _115  and  _118
REMARK   50  A    between atoms: _118  and  _119
REMARK   51  A    between atoms: _124  and  _125
REMARK   52  A    between atoms: _127  and  _129
REMARK   53  A    between atoms: _129  and  _130
REMARK   54  A    between atoms: _129  and  _132
REMARK   55  A    between atoms: _132  and  _133
REMARK   56  A    between atoms: _135  and  _137
REMARK   57  A    between atoms: _137  and  _138
REMARK   58  A    between atoms: _137  and  _140
REMARK   59  A    between atoms: _140  and  _141
REMARK   60  A    between atoms: _144  and  _146
REMARK   61  A    between atoms: _146  and  _147
REMARK   62  A    between atoms: _146  and  _149
REMARK   63  A    between atoms: _149  and  _150
REMARK   64  A    between atoms: _155  and  _157
REMARK   65  A    between atoms: _157  and  _158
REMARK   66  A    between atoms: _157  and  _160
REMARK   67  A    between atoms: _160  and  _161
REMARK   68  A    between atoms: _161  and  _162
REMARK   69  A    between atoms: _166  and  _167
REMARK   70  A    between atoms: _172  and  _174
REMARK   71  A    between atoms: _174  and  _175
REMARK   72  A    between atoms: _174  and  _177
REMARK   73  A    between atoms: _177  and  _178
REMARK   74  A    between atoms: _183  and  _185
REMARK   75  A    between atoms: _185  and  _186
REMARK   76  A    between atoms: _185  and  _188
REMARK   77  A    between atoms: _188  and  _189
REMARK   78  A    between atoms: _194  and  _196
REMARK   79  A    between atoms: _196  and  _197
REMARK   80  A    between atoms: _196  and  _199
REMARK   81  A    between atoms: _199  and  _200
REMARK   82  A    between atoms: _203  and  _205
REMARK   83  A    between atoms: _205  and  _206
REMARK   84  A    between atoms: _208  and  _210
REMARK   85  A    between atoms: _210  and  _211
REMARK   86  A    between atoms: _210  and  _213
REMARK   87  A    between atoms: _213  and  _214
REMARK   88  A    between atoms: _216  and  _218
REMARK   89  A    between atoms: _218  and  _219
REMARK   90  A    between atoms: _218  and  _221
REMARK   91  A    between atoms: _221  and  _222
REMARK   92  A    between atoms: _225  and  _227
REMARK   93  A    between atoms: _227  and  _228
REMARK   94  A    between atoms: _227  and  _230
REMARK   95  A    between atoms: _230  and  _231
REMARK   96  A    between atoms: _231  and  _232
REMARK   97  A    between atoms: _232  and  _233
REMARK   98  A    between atoms: _233  and  _234
REMARK   99  A    between atoms: _238  and  _240
REMARK  100  A    between atoms: _240  and  _241
REMARK  101  A    between atoms: _240  and  _243
REMARK  102  A    between atoms: _243  and  _244
REMARK  103  A    between atoms: _247  and  _249
REMARK  104  A    between atoms: _249  and  _250
REMARK  105  A    between atoms: _252  and  _254
REMARK  106  A    between atoms: _254  and  _255
REMARK  107  A    between atoms: _254  and  _257
REMARK  108  A    between atoms: _257  and  _258
REMARK  109  A    between atoms: _260  and  _262
REMARK  110  A    between atoms: _262  and  _263
REMARK  111  A    between atoms: _265  and  _267
REMARK  112  A    between atoms: _267  and  _268
REMARK  113  A    between atoms: _267  and  _270
REMARK  114  A    between atoms: _270  and  _271
REMARK  115  A    between atoms: _274  and  _276
REMARK  116  A    between atoms: _276  and  _277
REMARK  117  A    between atoms: _276  and  _279
REMARK  118  A    between atoms: _279  and  _280
REMARK  119  A    between atoms: _283  and  _285
REMARK  120  A    between atoms: _285  and  _286
REMARK  121  A    between atoms: _285  and  _288
REMARK  122  A    between atoms: _288  and  _289
REMARK  123  A    between atoms: _294  and  _296
REMARK  124  A    between atoms: _296  and  _297
REMARK  125  A    between atoms: _296  and  _299
REMARK  126  A    between atoms: _299  and  _300
REMARK  127  A    between atoms: _303  and  _305
REMARK  128  A    between atoms: _305  and  _306
REMARK  129  A    between atoms: _305  and  _308
REMARK  130  A    between atoms: _308  and  _309
REMARK  131  A    between atoms: _311  and  _313
REMARK  132  A    between atoms: _313  and  _314
REMARK  133  A    between atoms: _313  and  _316
REMARK  134  A    between atoms: _316  and  _317
REMARK  135  A    between atoms: _317  and  _318
REMARK  136  A    between atoms: _318  and  _319
REMARK  137  A    between atoms: _328  and  _330
REMARK  138  A    between atoms: _330  and  _331
REMARK  139  A    between atoms: _330  and  _333
REMARK  140  A    between atoms: _333  and  _334
REMARK                            x       y       z     vdW  Elec       q    Type
REMARK                         _______ _______ _______ _____ _____    ______ ____
ROOT
ATOM      1  O   HOH     1      -1.895  47.390   6.431  0.00  0.00    +0.000 OA
ENDROOT
TORSDOF 0
