REMARK  Name = ../refined-set-2016/4nvp/4nvp_pocket.pdb
REMARK  218 active torsions:
REMARK  status: ('A' for Active; 'I' for Inactive)
REMARK    1  A    between atoms: _1  and  _3
REMARK    2  A    between atoms: _3  and  _4
REMARK    3  A    between atoms: _3  and  _6
REMARK    4  A    between atoms: _6  and  _7
REMARK    5  A    between atoms: _10  and  _12
REMARK    6  A    between atoms: _12  and  _13
REMARK    7  A    between atoms: _12  and  _15
REMARK    8  A    between atoms: _15  and  _16
REMARK    9  A    between atoms: _16  and  _17
REMARK   10  A    between atoms: _17  and  _18
REMARK   11  A    between atoms: _27  and  _29
REMARK   12  A    between atoms: _29  and  _30
REMARK   13  A    between atoms: _29  and  _32
REMARK   14  A    between atoms: _32  and  _33
REMARK   15  A    between atoms: _33  and  _34
REMARK   16  A    between atoms: _37  and  _39
REMARK   17  A    between atoms: _39  and  _40
REMARK   18  A    between atoms: _42  and  _44
REMARK   19  A    between atoms: _44  and  _45
REMARK   20  A    between atoms: _44  and  _47
REMARK   21  A    between atoms: _47  and  _48
REMARK   22  A    between atoms: _51  and  _53
REMARK   23  A    between atoms: _53  and  _54
REMARK   24  A    between atoms: _53  and  _56
REMARK   25  A    between atoms: _56  and  _57
REMARK   26  A    between atoms: _60  and  _62
REMARK   27  A    between atoms: _62  and  _63
REMARK   28  A    between atoms: _65  and  _67
REMARK   29  A    between atoms: _67  and  _68
REMARK   30  A    between atoms: _67  and  _70
REMARK   31  A    between atoms: _70  and  _71
REMARK   32  A    between atoms: _71  and  _72
REMARK   33  A    between atoms: _72  and  _73
REMARK   34  A    between atoms: _73  and  _74
REMARK   35  A    between atoms: _78  and  _80
REMARK   36  A    between atoms: _80  and  _81
REMARK   37  A    between atoms: _80  and  _83
REMARK   38  A    between atoms: _83  and  _84
REMARK   39  A    between atoms: _84  and  _85
REMARK   40  A    between atoms: _85  and  _86
REMARK   41  A    between atoms: _86  and  _87
REMARK   42  A    between atoms: _91  and  _93
REMARK   43  A    between atoms: _93  and  _94
REMARK   44  A    between atoms: _93  and  _96
REMARK   45  A    between atoms: _96  and  _97
REMARK   46  A    between atoms: _97  and  _98
REMARK   47  A    between atoms: _100  and  _102
REMARK   48  A    between atoms: _102  and  _103
REMARK   49  A    between atoms: _102  and  _105
REMARK   50  A    between atoms: _105  and  _106
REMARK   51  A    between atoms: _111  and  _112
REMARK   52  A    between atoms: _114  and  _116
REMARK   53  A    between atoms: _116  and  _117
REMARK   54  A    between atoms: _116  and  _119
REMARK   55  A    between atoms: _122  and  _124
REMARK   56  A    between atoms: _124  and  _125
REMARK   57  A    between atoms: _124  and  _127
REMARK   58  A    between atoms: _127  and  _128
REMARK   59  A    between atoms: _130  and  _132
REMARK   60  A    between atoms: _132  and  _133
REMARK   61  A    between atoms: _132  and  _135
REMARK   62  A    between atoms: _138  and  _140
REMARK   63  A    between atoms: _140  and  _141
REMARK   64  A    between atoms: _140  and  _143
REMARK   65  A    between atoms: _143  and  _144
REMARK   66  A    between atoms: _147  and  _149
REMARK   67  A    between atoms: _149  and  _150
REMARK   68  A    between atoms: _149  and  _152
REMARK   69  A    between atoms: _152  and  _153
REMARK   70  A    between atoms: _156  and  _158
REMARK   71  A    between atoms: _158  and  _159
REMARK   72  A    between atoms: _158  and  _161
REMARK   73  A    between atoms: _161  and  _162
REMARK   74  A    between atoms: _167  and  _169
REMARK   75  A    between atoms: _169  and  _170
REMARK   76  A    between atoms: _169  and  _172
REMARK   77  A    between atoms: _172  and  _173
REMARK   78  A    between atoms: _173  and  _174
REMARK   79  A    between atoms: _174  and  _175
REMARK   80  A    between atoms: _175  and  _176
REMARK   81  A    between atoms: _180  and  _182
REMARK   82  A    between atoms: _182  and  _183
REMARK   83  A    between atoms: _182  and  _185
REMARK   84  A    between atoms: _185  and  _186
REMARK   85  A    between atoms: _186  and  _187
REMARK   86  A    between atoms: _190  and  _192
REMARK   87  A    between atoms: _192  and  _193
REMARK   88  A    between atoms: _192  and  _195
REMARK   89  A    between atoms: _195  and  _196
REMARK   90  A    between atoms: _199  and  _201
REMARK   91  A    between atoms: _201  and  _202
REMARK   92  A    between atoms: _201  and  _204
REMARK   93  A    between atoms: _204  and  _205
REMARK   94  A    between atoms: _205  and  _206
REMARK   95  A    between atoms: _206  and  _207
REMARK   96  A    between atoms: _207  and  _208
REMARK   97  A    between atoms: _212  and  _214
REMARK   98  A    between atoms: _214  and  _215
REMARK   99  A    between atoms: _214  and  _217
REMARK  100  A    between atoms: _217  and  _218
REMARK  101  A    between atoms: _221  and  _223
REMARK  102  A    between atoms: _223  and  _224
REMARK  103  A    between atoms: _223  and  _226
REMARK  104  A    between atoms: _226  and  _227
REMARK  105  A    between atoms: _229  and  _231
REMARK  106  A    between atoms: _231  and  _232
REMARK  107  A    between atoms: _231  and  _234
REMARK  108  A    between atoms: _234  and  _235
REMARK  109  A    between atoms: _240  and  _241
REMARK  110  A    between atoms: _243  and  _245
REMARK  111  A    between atoms: _245  and  _246
REMARK  112  A    between atoms: _245  and  _248
REMARK  113  A    between atoms: _248  and  _249
REMARK  114  A    between atoms: _255  and  _257
REMARK  115  A    between atoms: _257  and  _258
REMARK  116  A    between atoms: _260  and  _262
REMARK  117  A    between atoms: _262  and  _263
REMARK  118  A    between atoms: _262  and  _265
REMARK  119  A    between atoms: _265  and  _266
REMARK  120  A    between atoms: _266  and  _267
REMARK  121  A    between atoms: _270  and  _272
REMARK  122  A    between atoms: _272  and  _273
REMARK  123  A    between atoms: _272  and  _275
REMARK  124  A    between atoms: _275  and  _276
REMARK  125  A    between atoms: _279  and  _281
REMARK  126  A    between atoms: _281  and  _282
REMARK  127  A    between atoms: _281  and  _284
REMARK  128  A    between atoms: _286  and  _288
REMARK  129  A    between atoms: _288  and  _289
REMARK  130  A    between atoms: _288  and  _291
REMARK  131  A    between atoms: _291  and  _292
REMARK  132  A    between atoms: _295  and  _297
REMARK  133  A    between atoms: _297  and  _298
REMARK  134  A    between atoms: _297  and  _300
REMARK  135  A    between atoms: _300  and  _301
REMARK  136  A    between atoms: _304  and  _306
REMARK  137  A    between atoms: _306  and  _307
REMARK  138  A    between atoms: _306  and  _309
REMARK  139  A    between atoms: _309  and  _310
REMARK  140  A    between atoms: _313  and  _315
REMARK  141  A    between atoms: _315  and  _316
REMARK  142  A    between atoms: _315  and  _318
REMARK  143  A    between atoms: _318  and  _319
REMARK  144  A    between atoms: _319  and  _320
REMARK  145  A    between atoms: _320  and  _321
REMARK  146  A    between atoms: _330  and  _332
REMARK  147  A    between atoms: _332  and  _333
REMARK  148  A    between atoms: _335  and  _337
REMARK  149  A    between atoms: _337  and  _338
REMARK  150  A    between atoms: _337  and  _340
REMARK  151  A    between atoms: _340  and  _341
REMARK  152  A    between atoms: _341  and  _342
REMARK  153  A    between atoms: _342  and  _343
REMARK  154  A    between atoms: _352  and  _354
REMARK  155  A    between atoms: _354  and  _355
REMARK  156  A    between atoms: _354  and  _357
REMARK  157  A    between atoms: _357  and  _358
REMARK  158  A    between atoms: _358  and  _359
REMARK  159  A    between atoms: _359  and  _360
REMARK  160  A    between atoms: _369  and  _371
REMARK  161  A    between atoms: _371  and  _372
REMARK  162  A    between atoms: _371  and  _374
REMARK  163  A    between atoms: _374  and  _375
REMARK  164  A    between atoms: _378  and  _380
REMARK  165  A    between atoms: _380  and  _381
REMARK  166  A    between atoms: _384  and  _386
REMARK  167  A    between atoms: _386  and  _387
REMARK  168  A    between atoms: _386  and  _389
REMARK  169  A    between atoms: _389  and  _390
REMARK  170  A    between atoms: _392  and  _394
REMARK  171  A    between atoms: _394  and  _395
REMARK  172  A    between atoms: _394  and  _397
REMARK  173  A    between atoms: _400  and  _402
REMARK  174  A    between atoms: _402  and  _403
REMARK  175  A    between atoms: _402  and  _405
REMARK  176  A    between atoms: _408  and  _410
REMARK  177  A    between atoms: _410  and  _411
REMARK  178  A    between atoms: _414  and  _416
REMARK  179  A    between atoms: _416  and  _417
REMARK  180  A    between atoms: _416  and  _419
REMARK  181  A    between atoms: _419  and  _420
REMARK  182  A    between atoms: _423  and  _425
REMARK  183  A    between atoms: _425  and  _426
REMARK  184  A    between atoms: _425  and  _428
REMARK  185  A    between atoms: _428  and  _429
REMARK  186  A    between atoms: _432  and  _434
REMARK  187  A    between atoms: _434  and  _435
REMARK  188  A    between atoms: _434  and  _437
REMARK  189  A    between atoms: _437  and  _438
REMARK  190  A    between atoms: _438  and  _439
REMARK  191  A    between atoms: _439  and  _440
REMARK  192  A    between atoms: _449  and  _451
REMARK  193  A    between atoms: _451  and  _452
REMARK  194  A    between atoms: _451  and  _454
REMARK  195  A    between atoms: _454  and  _455
REMARK  196  A    between atoms: _458  and  _460
REMARK  197  A    between atoms: _460  and  _461
REMARK  198  A    between atoms: _460  and  _463
REMARK  199  A    between atoms: _463  and  _464
REMARK  200  A    between atoms: _467  and  _469
REMARK  201  A    between atoms: _469  and  _470
REMARK  202  A    between atoms: _469  and  _472
REMARK  203  A    between atoms: _472  and  _473
REMARK  204  A    between atoms: _473  and  _474
REMARK  205  A    between atoms: _474  and  _475
REMARK  206  A    between atoms: _484  and  _486
REMARK  207  A    between atoms: _486  and  _487
REMARK  208  A    between atoms: _486  and  _489
REMARK  209  A    between atoms: _489  and  _490
REMARK  210  A    between atoms: _493  and  _495
REMARK  211  A    between atoms: _495  and  _496
REMARK  212  A    between atoms: _498  and  _500
REMARK  213  A    between atoms: _500  and  _501
REMARK  214  A    between atoms: _500  and  _503
REMARK  215  A    between atoms: _503  and  _504
REMARK  216  A    between atoms: _504  and  _505
REMARK  217  A    between atoms: _505  and  _506
REMARK  218  A    between atoms: _506  and  _507
REMARK                            x       y       z     vdW  Elec       q    Type
REMARK                         _______ _______ _______ _____ _____    ______ ____
ROOT
ATOM      1  CA  ILE A   6       9.461  29.341  15.954  0.00  0.00    +0.149 C 
ENDROOT
BRANCH   1   2
ATOM      2  C   ILE A   6       8.475  29.237  14.798  0.00  0.00    +0.241 C 
ATOM      3  N   GLY A   7       7.223  28.916  15.117  0.00  0.00    -0.295 N 
ATOM      4  H   GLY A   7       6.957  28.841  16.120  0.00  0.00    +0.150 HD
ATOM      5  O   ILE A   6       8.842  29.488  13.641  0.00  0.00    -0.273 OA
BRANCH   3   6
ATOM      6  CA  GLY A   7       6.215  28.667  14.090  0.00  0.00    +0.176 C 
BRANCH   6   7
ATOM      7  C   GLY A   7       5.090  29.672  14.115  0.00  0.00    +0.243 C 
ATOM      8  O   GLY A   7       4.574  30.013  15.181  0.00  0.00    -0.273 OA
ATOM      9  N   LYS A   8       4.707  30.144  12.937  0.00  0.00    -0.297 N 
ATOM     10  H   LYS A   8       5.165  29.786  12.074  0.00  0.00    +0.150 HD
BRANCH   9  11
ATOM     11  CA  LYS A   8       3.662  31.150  12.821  0.00  0.00    +0.149 C 
BRANCH  11  12
ATOM     12  C   LYS A   8       2.528  30.764  11.843  0.00  0.00    +0.241 C 
ATOM     13  O   LYS A   8       1.678  31.589  11.513  0.00  0.00    -0.273 OA
ATOM     14  N   LYS A   9       2.523  29.520  11.373  0.00  0.00    -0.297 N 
ATOM     15  H   LYS A   9       3.329  28.899  11.587  0.00  0.00    +0.150 HD
BRANCH  14  16
ATOM     16  CA  LYS A   9       1.414  28.991  10.559  0.00  0.00    +0.149 C 
BRANCH  16  17
ATOM     17  C   LYS A   9       1.253  27.502  10.795  0.00  0.00    +0.241 C 
ATOM     18  O   LYS A   9       2.224  26.823  11.127  0.00  0.00    -0.273 OA
ATOM     19  N   MET A  10       0.032  27.003  10.630  0.00  0.00    -0.297 N 
ATOM     20  H   MET A  10      -0.777  27.653  10.556  0.00  0.00    +0.150 HD
BRANCH  19  21
ATOM     21  CA  MET A  10      -0.202  25.553  10.550  0.00  0.00    +0.149 C 
BRANCH  21  22
ATOM     22  C   MET A  10      -0.590  25.273   9.132  0.00  0.00    +0.241 C 
ATOM     23  N   TYR A  11      -0.801  23.989   8.806  0.00  0.00    -0.298 N 
ATOM     24  H   TYR A  11      -0.814  23.280   9.567  0.00  0.00    +0.150 HD
ATOM     25  O   MET A  10      -0.742  26.234   8.367  0.00  0.00    -0.273 OA
BRANCH  23  26
ATOM     26  CA  TYR A  11      -1.015  23.536   7.421  0.00  0.00    +0.141 C 
BRANCH  26  27
ATOM     27  C   TYR A  11      -2.068  22.421   7.302  0.00  0.00    +0.227 C 
ATOM     28  O   TYR A  11      -2.090  21.478   8.099  0.00  0.00    -0.286 OA
ENDBRANCH  26  27
BRANCH  26  29
ATOM     29  CB  TYR A  11       0.301  22.969   6.860  0.00  0.00    +0.054 C 
BRANCH  29  30
ATOM     30  CG  TYR A  11       1.434  23.950   6.849  0.00  0.00    -0.020 A 
ATOM     31  CD2 TYR A  11       2.232  24.136   7.966  0.00  0.00    -0.001 A 
ATOM     32  CE2 TYR A  11       3.268  25.053   7.961  0.00  0.00    +0.036 A 
ATOM     33  CZ  TYR A  11       3.518  25.793   6.813  0.00  0.00    +0.134 A 
ATOM     34  CE1 TYR A  11       2.751  25.603   5.688  0.00  0.00    +0.036 A 
ATOM     35  CD1 TYR A  11       1.716  24.684   5.715  0.00  0.00    -0.001 A 
BRANCH  33  36
ATOM     36  OH  TYR A  11       4.550  26.705   6.770  0.00  0.00    -0.506 OA
ATOM     37  HH  TYR A  11       5.005  26.728   7.649  0.00  0.00    +0.292 HD
ENDBRANCH  33  36
ENDBRANCH  29  30
ENDBRANCH  26  29
ENDBRANCH  23  26
ENDBRANCH  21  22
BRANCH  21  38
ATOM     38  CB  MET A  10      -1.311  25.084  11.495  0.00  0.00    +0.041 C 
BRANCH  38  39
ATOM     39  CG  MET A  10      -2.726  25.550  11.172  0.00  0.00    +0.060 C 
BRANCH  39  40
ATOM     40  SD  MET A  10      -3.922  24.710  12.229  0.00  0.00    -0.139 S 
ATOM     41  CE  MET A  10      -3.911  23.087  11.463  0.00  0.00    +0.069 C 
ENDBRANCH  39  40
ENDBRANCH  38  39
ENDBRANCH  21  38
ENDBRANCH  19  21
ENDBRANCH  16  17
BRANCH  16  42
ATOM     42  CB  LYS A   9       1.597  29.279   9.045  0.00  0.00    +0.029 C 
BRANCH  42  43
ATOM     43  CG  LYS A   9       3.008  29.713   8.639  0.00  0.00    +0.000 C 
BRANCH  43  44
ATOM     44  CD  LYS A   9       3.282  29.474   7.166  0.00  0.00    -0.024 C 
BRANCH  44  45
ATOM     45  CE  LYS A   9       3.373  30.757   6.343  0.00  0.00    -0.086 C 
BRANCH  45  46
ATOM     46  NZ  LYS A   9       3.596  30.411   4.906  0.00  0.00    +0.380 N 
ATOM     47  HZ1 LYS A   9       4.482  29.875   4.813  0.00  0.00    -0.089 HD
ATOM     48  HZ2 LYS A   9       2.802  29.833   4.563  0.00  0.00    -0.089 HD
ATOM     49  HZ3 LYS A   9       3.658  31.285   4.346  0.00  0.00    -0.089 HD
ENDBRANCH  45  46
ENDBRANCH  44  45
ENDBRANCH  43  44
ENDBRANCH  42  43
ENDBRANCH  16  42
ENDBRANCH  14  16
ENDBRANCH  11  12
BRANCH  11  50
ATOM     50  CB  LYS A   8       4.307  32.461  12.379  0.00  0.00    +0.029 C 
BRANCH  50  51
ATOM     51  CG  LYS A   8       5.419  32.958  13.290  0.00  0.00    +0.000 C 
BRANCH  51  52
ATOM     52  CD  LYS A   8       6.544  33.543  12.450  0.00  0.00    -0.024 C 
BRANCH  52  53
ATOM     53  CE  LYS A   8       7.379  34.557  13.222  0.00  0.00    -0.086 C 
BRANCH  53  54
ATOM     54  NZ  LYS A   8       7.909  35.604  12.297  0.00  0.00    +0.380 N 
ATOM     55  HZ1 LYS A   8       8.476  36.288  12.838  0.00  0.00    -0.089 HD
ATOM     56  HZ2 LYS A   8       7.115  36.095  11.840  0.00  0.00    -0.089 HD
ATOM     57  HZ3 LYS A   8       8.504  35.155  11.572  0.00  0.00    -0.089 HD
ENDBRANCH  53  54
ENDBRANCH  52  53
ENDBRANCH  51  52
ENDBRANCH  50  51
ENDBRANCH  11  50
ENDBRANCH   9  11
ENDBRANCH   6   7
ENDBRANCH   3   6
ENDBRANCH   1   2
BRANCH   1  60
ATOM     58  C   THR A   5      10.889  27.400  15.688  0.00  0.00    +0.243 C 
ATOM     59  O   THR A   5      10.104  26.665  16.289  0.00  0.00    -0.273 OA
ATOM     60  N   ILE A   6      10.687  28.698  15.521  0.00  0.00    -0.297 N 
ATOM     61  H   ILE A   6      11.427  29.271  15.068  0.00  0.00    +0.150 HD
BRANCH  58  62
ATOM     62  CA  THR A   5      12.190  26.851  15.125  0.00  0.00    +0.176 C 
BRANCH  62  65
ATOM     63  C   GLY A   4      12.987  25.224  16.757  0.00  0.00    +0.243 C 
ATOM     64  O   GLY A   4      13.386  26.108  17.501  0.00  0.00    -0.273 OA
ATOM     65  N   THR A   5      12.402  25.483  15.590  0.00  0.00    -0.295 N 
ATOM     66  H   THR A   5      12.088  24.691  14.994  0.00  0.00    +0.150 HD
BRANCH  63  67
ATOM     67  CA  GLY A   4      13.144  23.775  17.164  0.00  0.00    +0.176 C 
BRANCH  67  69
ATOM     68  C   GLU A   3      12.804  22.323  15.272  0.00  0.00    +0.241 C 
ATOM     69  N   GLY A   4      12.329  22.862  16.386  0.00  0.00    -0.295 N 
ATOM     70  H   GLY A   4      11.367  22.629  16.704  0.00  0.00    +0.150 HD
ATOM     71  O   GLU A   3      13.840  22.694  14.761  0.00  0.00    -0.273 OA
BRANCH  68  72
ATOM     72  CA  GLU A   3      11.983  21.235  14.619  0.00  0.00    +0.149 C 
BRANCH  72  74
ATOM     73  C   ARG A   2      11.806  22.502  12.557  0.00  0.00    +0.241 C 
ATOM     74  N   GLU A   3      12.090  21.368  13.181  0.00  0.00    -0.297 N 
ATOM     75  H   GLU A   3      12.399  20.548  12.621  0.00  0.00    +0.150 HD
ATOM     76  O   ARG A   2      11.395  23.517  13.129  0.00  0.00    -0.273 OA
BRANCH  73  77
ATOM     77  CA  ARG A   2      12.052  22.508  11.050  0.00  0.00    +0.149 C 
BRANCH  77  79
ATOM     78  C   ILE A   1      10.066  22.201   9.662  0.00  0.00    +0.238 C 
ATOM     79  N   ARG A   2      10.862  23.017  10.346  0.00  0.00    -0.297 N 
ATOM     80  H   ARG A   2      10.641  24.032  10.385  0.00  0.00    +0.150 HD
ATOM     81  O   ILE A   1      10.341  21.034   9.465  0.00  0.00    -0.274 OA
BRANCH  78  82
ATOM     82  CA  ILE A   1       8.741  22.767   9.142  0.00  0.00    +0.145 C 
BRANCH  82  83
ATOM     83  N   ILE A   1       8.489  22.302   7.778  0.00  0.00    -0.238 NA
ATOM     84  H   ILE A   1       8.604  21.288   7.579  0.00  0.00    +0.142 HD
ENDBRANCH  82  83
BRANCH  82  85
ATOM     85  CB  ILE A   1       7.623  22.275  10.105  0.00  0.00    +0.025 C 
ATOM     86  CG2 ILE A   1       8.051  22.410  11.568  0.00  0.00    +0.002 C 
BRANCH  85  87
ATOM     87  CG1 ILE A   1       6.354  23.080   9.878  0.00  0.00    +0.002 C 
ATOM     88  CD1 ILE A   1       5.122  22.527  10.576  0.00  0.00    +0.000 C 
ENDBRANCH  85  87
ENDBRANCH  82  85
ENDBRANCH  78  82
ENDBRANCH  77  79
BRANCH  77  89
ATOM     89  CB  ARG A   2      13.283  23.367  10.792  0.00  0.00    +0.033 C 
BRANCH  89  90
ATOM     90  CG  ARG A   2      13.804  23.330   9.389  0.00  0.00    +0.045 C 
BRANCH  90  91
ATOM     91  CD  ARG A   2      14.755  24.505   9.105  0.00  0.00    +0.174 C 
BRANCH  91  92
ATOM     92  NE  ARG A   2      15.735  24.033   8.136  0.00  0.00    -0.265 N 
ATOM     93  HE  ARG A   2      16.704  23.862   8.472  0.00  0.00    +0.259 HD
ATOM     94  CZ  ARG A   2      15.475  23.806   6.850  0.00  0.00    +0.342 C 
ATOM     95  NH2 ARG A   2      14.275  24.082   6.341  0.00  0.00    -0.292 N 
ATOM     96 HH21 ARG A   2      13.531  24.479   6.950  0.00  0.00    +0.255 HD
ATOM     97 HH22 ARG A   2      14.083  23.901   5.335  0.00  0.00    +0.255 HD
ATOM     98  NH1 ARG A   2      16.419  23.322   6.060  0.00  0.00    -0.292 N 
ATOM     99 HH11 ARG A   2      17.364  23.119   6.443  0.00  0.00    +0.255 HD
ATOM    100 HH12 ARG A   2      16.216  23.145   5.056  0.00  0.00    +0.255 HD
ENDBRANCH  91  92
ENDBRANCH  90  91
ENDBRANCH  89  90
ENDBRANCH  77  89
ENDBRANCH  73  77
ENDBRANCH  72  74
BRANCH  72 101
ATOM    101  CB  GLU A   3      12.514  19.874  15.044  0.00  0.00    +0.041 C 
BRANCH 101 102
ATOM    102  CG  GLU A   3      12.575  19.664  16.546  0.00  0.00    +0.116 C 
BRANCH 102 103
ATOM    103  CD  GLU A   3      12.640  18.195  16.938  0.00  0.00    +0.365 C 
ATOM    104  OE2 GLU A   3      12.501  17.901  18.141  0.00  0.00    -0.246 OA
ATOM    105  OE1 GLU A   3      12.811  17.323  16.052  0.00  0.00    -0.246 OA
ENDBRANCH 102 103
ENDBRANCH 101 102
ENDBRANCH  72 101
ENDBRANCH  68  72
ENDBRANCH  67  69
ENDBRANCH  63  67
ENDBRANCH  62  65
BRANCH  62 106
ATOM    106  CB  THR A   5      12.140  26.899  13.594  0.00  0.00    +0.137 C 
ATOM    107  CG2 THR A   5      13.509  26.494  13.025  0.00  0.00    +0.034 C 
BRANCH 106 108
ATOM    108  OG1 THR A   5      11.145  25.981  13.127  0.00  0.00    -0.382 OA
ATOM    109  HG1 THR A   5      11.377  25.066  13.424  0.00  0.00    +0.210 HD
ENDBRANCH 106 108
ENDBRANCH  62 106
ENDBRANCH  58  62
ENDBRANCH   1  60
BRANCH   1 110
ATOM    110  CB  ILE A   6       9.668  30.838  16.298  0.00  0.00    +0.027 C 
ATOM    111  CG2 ILE A   6       8.331  31.568  16.359  0.00  0.00    +0.002 C 
BRANCH 110 112
ATOM    112  CG1 ILE A   6      10.378  30.987  17.644  0.00  0.00    +0.002 C 
ATOM    113  CD1 ILE A   6      10.656  32.435  18.042  0.00  0.00    +0.000 C 
ENDBRANCH 110 112
ENDBRANCH   1 110
TORSDOF 51
REMARK  Name = ../refined-set-2016/4nvp/4nvp_pocket.pdb
REMARK  218 active torsions:
REMARK  status: ('A' for Active; 'I' for Inactive)
REMARK    1  A    between atoms: _1  and  _3
REMARK    2  A    between atoms: _3  and  _4
REMARK    3  A    between atoms: _3  and  _6
REMARK    4  A    between atoms: _6  and  _7
REMARK    5  A    between atoms: _10  and  _12
REMARK    6  A    between atoms: _12  and  _13
REMARK    7  A    between atoms: _12  and  _15
REMARK    8  A    between atoms: _15  and  _16
REMARK    9  A    between atoms: _16  and  _17
REMARK   10  A    between atoms: _17  and  _18
REMARK   11  A    between atoms: _27  and  _29
REMARK   12  A    between atoms: _29  and  _30
REMARK   13  A    between atoms: _29  and  _32
REMARK   14  A    between atoms: _32  and  _33
REMARK   15  A    between atoms: _33  and  _34
REMARK   16  A    between atoms: _37  and  _39
REMARK   17  A    between atoms: _39  and  _40
REMARK   18  A    between atoms: _42  and  _44
REMARK   19  A    between atoms: _44  and  _45
REMARK   20  A    between atoms: _44  and  _47
REMARK   21  A    between atoms: _47  and  _48
REMARK   22  A    between atoms: _51  and  _53
REMARK   23  A    between atoms: _53  and  _54
REMARK   24  A    between atoms: _53  and  _56
REMARK   25  A    between atoms: _56  and  _57
REMARK   26  A    between atoms: _60  and  _62
REMARK   27  A    between atoms: _62  and  _63
REMARK   28  A    between atoms: _65  and  _67
REMARK   29  A    between atoms: _67  and  _68
REMARK   30  A    between atoms: _67  and  _70
REMARK   31  A    between atoms: _70  and  _71
REMARK   32  A    between atoms: _71  and  _72
REMARK   33  A    between atoms: _72  and  _73
REMARK   34  A    between atoms: _73  and  _74
REMARK   35  A    between atoms: _78  and  _80
REMARK   36  A    between atoms: _80  and  _81
REMARK   37  A    between atoms: _80  and  _83
REMARK   38  A    between atoms: _83  and  _84
REMARK   39  A    between atoms: _84  and  _85
REMARK   40  A    between atoms: _85  and  _86
REMARK   41  A    between atoms: _86  and  _87
REMARK   42  A    between atoms: _91  and  _93
REMARK   43  A    between atoms: _93  and  _94
REMARK   44  A    between atoms: _93  and  _96
REMARK   45  A    between atoms: _96  and  _97
REMARK   46  A    between atoms: _97  and  _98
REMARK   47  A    between atoms: _100  and  _102
REMARK   48  A    between atoms: _102  and  _103
REMARK   49  A    between atoms: _102  and  _105
REMARK   50  A    between atoms: _105  and  _106
REMARK   51  A    between atoms: _111  and  _112
REMARK   52  A    between atoms: _114  and  _116
REMARK   53  A    between atoms: _116  and  _117
REMARK   54  A    between atoms: _116  and  _119
REMARK   55  A    between atoms: _122  and  _124
REMARK   56  A    between atoms: _124  and  _125
REMARK   57  A    between atoms: _124  and  _127
REMARK   58  A    between atoms: _127  and  _128
REMARK   59  A    between atoms: _130  and  _132
REMARK   60  A    between atoms: _132  and  _133
REMARK   61  A    between atoms: _132  and  _135
REMARK   62  A    between atoms: _138  and  _140
REMARK   63  A    between atoms: _140  and  _141
REMARK   64  A    between atoms: _140  and  _143
REMARK   65  A    between atoms: _143  and  _144
REMARK   66  A    between atoms: _147  and  _149
REMARK   67  A    between atoms: _149  and  _150
REMARK   68  A    between atoms: _149  and  _152
REMARK   69  A    between atoms: _152  and  _153
REMARK   70  A    between atoms: _156  and  _158
REMARK   71  A    between atoms: _158  and  _159
REMARK   72  A    between atoms: _158  and  _161
REMARK   73  A    between atoms: _161  and  _162
REMARK   74  A    between atoms: _167  and  _169
REMARK   75  A    between atoms: _169  and  _170
REMARK   76  A    between atoms: _169  and  _172
REMARK   77  A    between atoms: _172  and  _173
REMARK   78  A    between atoms: _173  and  _174
REMARK   79  A    between atoms: _174  and  _175
REMARK   80  A    between atoms: _175  and  _176
REMARK   81  A    between atoms: _180  and  _182
REMARK   82  A    between atoms: _182  and  _183
REMARK   83  A    between atoms: _182  and  _185
REMARK   84  A    between atoms: _185  and  _186
REMARK   85  A    between atoms: _186  and  _187
REMARK   86  A    between atoms: _190  and  _192
REMARK   87  A    between atoms: _192  and  _193
REMARK   88  A    between atoms: _192  and  _195
REMARK   89  A    between atoms: _195  and  _196
REMARK   90  A    between atoms: _199  and  _201
REMARK   91  A    between atoms: _201  and  _202
REMARK   92  A    between atoms: _201  and  _204
REMARK   93  A    between atoms: _204  and  _205
REMARK   94  A    between atoms: _205  and  _206
REMARK   95  A    between atoms: _206  and  _207
REMARK   96  A    between atoms: _207  and  _208
REMARK   97  A    between atoms: _212  and  _214
REMARK   98  A    between atoms: _214  and  _215
REMARK   99  A    between atoms: _214  and  _217
REMARK  100  A    between atoms: _217  and  _218
REMARK  101  A    between atoms: _221  and  _223
REMARK  102  A    between atoms: _223  and  _224
REMARK  103  A    between atoms: _223  and  _226
REMARK  104  A    between atoms: _226  and  _227
REMARK  105  A    between atoms: _229  and  _231
REMARK  106  A    between atoms: _231  and  _232
REMARK  107  A    between atoms: _231  and  _234
REMARK  108  A    between atoms: _234  and  _235
REMARK  109  A    between atoms: _240  and  _241
REMARK  110  A    between atoms: _243  and  _245
REMARK  111  A    between atoms: _245  and  _246
REMARK  112  A    between atoms: _245  and  _248
REMARK  113  A    between atoms: _248  and  _249
REMARK  114  A    between atoms: _255  and  _257
REMARK  115  A    between atoms: _257  and  _258
REMARK  116  A    between atoms: _260  and  _262
REMARK  117  A    between atoms: _262  and  _263
REMARK  118  A    between atoms: _262  and  _265
REMARK  119  A    between atoms: _265  and  _266
REMARK  120  A    between atoms: _266  and  _267
REMARK  121  A    between atoms: _270  and  _272
REMARK  122  A    between atoms: _272  and  _273
REMARK  123  A    between atoms: _272  and  _275
REMARK  124  A    between atoms: _275  and  _276
REMARK  125  A    between atoms: _279  and  _281
REMARK  126  A    between atoms: _281  and  _282
REMARK  127  A    between atoms: _281  and  _284
REMARK  128  A    between atoms: _286  and  _288
REMARK  129  A    between atoms: _288  and  _289
REMARK  130  A    between atoms: _288  and  _291
REMARK  131  A    between atoms: _291  and  _292
REMARK  132  A    between atoms: _295  and  _297
REMARK  133  A    between atoms: _297  and  _298
REMARK  134  A    between atoms: _297  and  _300
REMARK  135  A    between atoms: _300  and  _301
REMARK  136  A    between atoms: _304  and  _306
REMARK  137  A    between atoms: _306  and  _307
REMARK  138  A    between atoms: _306  and  _309
REMARK  139  A    between atoms: _309  and  _310
REMARK  140  A    between atoms: _313  and  _315
REMARK  141  A    between atoms: _315  and  _316
REMARK  142  A    between atoms: _315  and  _318
REMARK  143  A    between atoms: _318  and  _319
REMARK  144  A    between atoms: _319  and  _320
REMARK  145  A    between atoms: _320  and  _321
REMARK  146  A    between atoms: _330  and  _332
REMARK  147  A    between atoms: _332  and  _333
REMARK  148  A    between atoms: _335  and  _337
REMARK  149  A    between atoms: _337  and  _338
REMARK  150  A    between atoms: _337  and  _340
REMARK  151  A    between atoms: _340  and  _341
REMARK  152  A    between atoms: _341  and  _342
REMARK  153  A    between atoms: _342  and  _343
REMARK  154  A    between atoms: _352  and  _354
REMARK  155  A    between atoms: _354  and  _355
REMARK  156  A    between atoms: _354  and  _357
REMARK  157  A    between atoms: _357  and  _358
REMARK  158  A    between atoms: _358  and  _359
REMARK  159  A    between atoms: _359  and  _360
REMARK  160  A    between atoms: _369  and  _371
REMARK  161  A    between atoms: _371  and  _372
REMARK  162  A    between atoms: _371  and  _374
REMARK  163  A    between atoms: _374  and  _375
REMARK  164  A    between atoms: _378  and  _380
REMARK  165  A    between atoms: _380  and  _381
REMARK  166  A    between atoms: _384  and  _386
REMARK  167  A    between atoms: _386  and  _387
REMARK  168  A    between atoms: _386  and  _389
REMARK  169  A    between atoms: _389  and  _390
REMARK  170  A    between atoms: _392  and  _394
REMARK  171  A    between atoms: _394  and  _395
REMARK  172  A    between atoms: _394  and  _397
REMARK  173  A    between atoms: _400  and  _402
REMARK  174  A    between atoms: _402  and  _403
REMARK  175  A    between atoms: _402  and  _405
REMARK  176  A    between atoms: _408  and  _410
REMARK  177  A    between atoms: _410  and  _411
REMARK  178  A    between atoms: _414  and  _416
REMARK  179  A    between atoms: _416  and  _417
REMARK  180  A    between atoms: _416  and  _419
REMARK  181  A    between atoms: _419  and  _420
REMARK  182  A    between atoms: _423  and  _425
REMARK  183  A    between atoms: _425  and  _426
REMARK  184  A    between atoms: _425  and  _428
REMARK  185  A    between atoms: _428  and  _429
REMARK  186  A    between atoms: _432  and  _434
REMARK  187  A    between atoms: _434  and  _435
REMARK  188  A    between atoms: _434  and  _437
REMARK  189  A    between atoms: _437  and  _438
REMARK  190  A    between atoms: _438  and  _439
REMARK  191  A    between atoms: _439  and  _440
REMARK  192  A    between atoms: _449  and  _451
REMARK  193  A    between atoms: _451  and  _452
REMARK  194  A    between atoms: _451  and  _454
REMARK  195  A    between atoms: _454  and  _455
REMARK  196  A    between atoms: _458  and  _460
REMARK  197  A    between atoms: _460  and  _461
REMARK  198  A    between atoms: _460  and  _463
REMARK  199  A    between atoms: _463  and  _464
REMARK  200  A    between atoms: _467  and  _469
REMARK  201  A    between atoms: _469  and  _470
REMARK  202  A    between atoms: _469  and  _472
REMARK  203  A    between atoms: _472  and  _473
REMARK  204  A    between atoms: _473  and  _474
REMARK  205  A    between atoms: _474  and  _475
REMARK  206  A    between atoms: _484  and  _486
REMARK  207  A    between atoms: _486  and  _487
REMARK  208  A    between atoms: _486  and  _489
REMARK  209  A    between atoms: _489  and  _490
REMARK  210  A    between atoms: _493  and  _495
REMARK  211  A    between atoms: _495  and  _496
REMARK  212  A    between atoms: _498  and  _500
REMARK  213  A    between atoms: _500  and  _501
REMARK  214  A    between atoms: _500  and  _503
REMARK  215  A    between atoms: _503  and  _504
REMARK  216  A    between atoms: _504  and  _505
REMARK  217  A    between atoms: _505  and  _506
REMARK  218  A    between atoms: _506  and  _507
REMARK                            x       y       z     vdW  Elec       q    Type
REMARK                         _______ _______ _______ _____ _____    ______ ____
ROOT
ATOM      1  CA  VAL A   3       7.020  13.809  10.522  0.00  0.00    +0.149 C 
ENDROOT
BRANCH   1   3
ATOM      2  C   SER A   2       7.156  13.716   8.076  0.00  0.00    +0.243 C 
ATOM      3  N   VAL A   3       6.729  13.171   9.210  0.00  0.00    -0.297 N 
ATOM      4  H   VAL A   3       6.184  12.286   9.180  0.00  0.00    +0.150 HD
ATOM      5  O   SER A   2       7.810  14.764   8.048  0.00  0.00    -0.273 OA
BRANCH   2   6
ATOM      6  CA  SER A   2       6.881  12.941   6.805  0.00  0.00    +0.178 C 
BRANCH   6   8
ATOM      7  C   VAL A   1       4.962  13.387   5.322  0.00  0.00    +0.238 C 
ATOM      8  N   SER A   2       6.163  13.713   5.786  0.00  0.00    -0.295 N 
ATOM      9  H   SER A   2       6.621  14.565   5.404  0.00  0.00    +0.150 HD
ATOM     10  O   VAL A   1       4.277  12.458   5.775  0.00  0.00    -0.274 OA
BRANCH   7  11
ATOM     11  CA  VAL A   1       4.423  14.292   4.224  0.00  0.00    +0.145 C 
BRANCH  11  12
ATOM     12  CB  VAL A   1       3.900  15.623   4.800  0.00  0.00    +0.025 C 
ATOM     13  CG2 VAL A   1       3.775  15.608   6.319  0.00  0.00    +0.002 C 
ATOM     14  CG1 VAL A   1       4.746  16.768   4.331  0.00  0.00    +0.002 C 
ENDBRANCH  11  12
BRANCH  11  15
ATOM     15  N   VAL A   1       3.335  13.632   3.502  0.00  0.00    -0.238 NA
ATOM     16  H   VAL A   1       2.558  13.191   4.034  0.00  0.00    +0.142 HD
ENDBRANCH  11  15
ENDBRANCH   7  11
ENDBRANCH   6   8
BRANCH   6  17
ATOM     17  CB  SER A   2       8.225  12.470   6.224  0.00  0.00    +0.166 C 
BRANCH  17  18
ATOM     18  OG  SER A   2       8.010  11.659   5.075  0.00  0.00    -0.380 OA
ATOM     19  H   SER A   2       7.527  12.183   4.388  0.00  0.00    +0.211 HD
ENDBRANCH  17  18
ENDBRANCH   6  17
ENDBRANCH   2   6
ENDBRANCH   1   3
BRANCH   1  20
ATOM     20  C   VAL A   3       8.177  13.134  11.272  0.00  0.00    +0.241 C 
ATOM     21  O   VAL A   3       8.114  11.946  11.656  0.00  0.00    -0.273 OA
ATOM     22  N   LEU A   4       9.193  13.949  11.534  0.00  0.00    -0.297 N 
ATOM     23  H   LEU A   4       9.026  14.974  11.483  0.00  0.00    +0.150 HD
BRANCH  22  24
ATOM     24  CA  LEU A   4      10.517  13.490  11.886  0.00  0.00    +0.149 C 
BRANCH  24  25
ATOM     25  C   LEU A   4      10.915  14.101  13.210  0.00  0.00    +0.241 C 
ATOM     26  N   THR A   5      10.952  13.257  14.230  0.00  0.00    -0.296 N 
ATOM     27  H   THR A   5      10.533  12.312  14.114  0.00  0.00    +0.150 HD
ATOM     28  O   LEU A   4      11.168  15.304  13.307  0.00  0.00    -0.273 OA
BRANCH  26  29
ATOM     29  CA  THR A   5      11.553  13.602  15.498  0.00  0.00    +0.164 C 
BRANCH  29  30
ATOM     30  CB  THR A   5      10.622  13.266  16.676  0.00  0.00    +0.136 C 
ATOM     31  CG2 THR A   5       9.776  14.459  17.023  0.00  0.00    +0.034 C 
BRANCH  30  32
ATOM     32  OG1 THR A   5       9.771  12.158  16.331  0.00  0.00    -0.382 OA
ATOM     33  HG1 THR A   5       9.176  11.950  17.095  0.00  0.00    +0.210 HD
ENDBRANCH  30  32
ENDBRANCH  29  30
BRANCH  29  34
ATOM     34  C   THR A   5      12.881  12.857  15.675  0.00  0.00    +0.229 C 
ATOM     35  O   THR A   5      12.981  11.653  15.407  0.00  0.00    -0.286 OA
ENDBRANCH  29  34
ENDBRANCH  26  29
ENDBRANCH  24  25
BRANCH  24  36
ATOM     36  CB  LEU A   4      11.516  13.938  10.816  0.00  0.00    +0.029 C 
BRANCH  36  37
ATOM     37  CG  LEU A   4      11.139  13.626   9.367  0.00  0.00    +0.002 C 
ATOM     38  CD2 LEU A   4      11.314  12.143   9.056  0.00  0.00    +0.000 C 
ATOM     39  CD1 LEU A   4      11.935  14.509   8.409  0.00  0.00    +0.000 C 
ENDBRANCH  36  37
ENDBRANCH  24  36
ENDBRANCH  22  24
ENDBRANCH   1  20
BRANCH   1  40
ATOM     40  CB  VAL A   3       5.769  13.898  11.442  0.00  0.00    +0.027 C 
ATOM     41  CG2 VAL A   3       6.098  14.712  12.709  0.00  0.00    +0.002 C 
ATOM     42  CG1 VAL A   3       4.592  14.510  10.679  0.00  0.00    +0.002 C 
ENDBRANCH   1  40
TORSDOF 18
REMARK  Name = ../refined-set-2016/4nvp/4nvp_pocket.pdb
REMARK  218 active torsions:
REMARK  status: ('A' for Active; 'I' for Inactive)
REMARK    1  A    between atoms: _1  and  _3
REMARK    2  A    between atoms: _3  and  _4
REMARK    3  A    between atoms: _3  and  _6
REMARK    4  A    between atoms: _6  and  _7
REMARK    5  A    between atoms: _10  and  _12
REMARK    6  A    between atoms: _12  and  _13
REMARK    7  A    between atoms: _12  and  _15
REMARK    8  A    between atoms: _15  and  _16
REMARK    9  A    between atoms: _16  and  _17
REMARK   10  A    between atoms: _17  and  _18
REMARK   11  A    between atoms: _27  and  _29
REMARK   12  A    between atoms: _29  and  _30
REMARK   13  A    between atoms: _29  and  _32
REMARK   14  A    between atoms: _32  and  _33
REMARK   15  A    between atoms: _33  and  _34
REMARK   16  A    between atoms: _37  and  _39
REMARK   17  A    between atoms: _39  and  _40
REMARK   18  A    between atoms: _42  and  _44
REMARK   19  A    between atoms: _44  and  _45
REMARK   20  A    between atoms: _44  and  _47
REMARK   21  A    between atoms: _47  and  _48
REMARK   22  A    between atoms: _51  and  _53
REMARK   23  A    between atoms: _53  and  _54
REMARK   24  A    between atoms: _53  and  _56
REMARK   25  A    between atoms: _56  and  _57
REMARK   26  A    between atoms: _60  and  _62
REMARK   27  A    between atoms: _62  and  _63
REMARK   28  A    between atoms: _65  and  _67
REMARK   29  A    between atoms: _67  and  _68
REMARK   30  A    between atoms: _67  and  _70
REMARK   31  A    between atoms: _70  and  _71
REMARK   32  A    between atoms: _71  and  _72
REMARK   33  A    between atoms: _72  and  _73
REMARK   34  A    between atoms: _73  and  _74
REMARK   35  A    between atoms: _78  and  _80
REMARK   36  A    between atoms: _80  and  _81
REMARK   37  A    between atoms: _80  and  _83
REMARK   38  A    between atoms: _83  and  _84
REMARK   39  A    between atoms: _84  and  _85
REMARK   40  A    between atoms: _85  and  _86
REMARK   41  A    between atoms: _86  and  _87
REMARK   42  A    between atoms: _91  and  _93
REMARK   43  A    between atoms: _93  and  _94
REMARK   44  A    between atoms: _93  and  _96
REMARK   45  A    between atoms: _96  and  _97
REMARK   46  A    between atoms: _97  and  _98
REMARK   47  A    between atoms: _100  and  _102
REMARK   48  A    between atoms: _102  and  _103
REMARK   49  A    between atoms: _102  and  _105
REMARK   50  A    between atoms: _105  and  _106
REMARK   51  A    between atoms: _111  and  _112
REMARK   52  A    between atoms: _114  and  _116
REMARK   53  A    between atoms: _116  and  _117
REMARK   54  A    between atoms: _116  and  _119
REMARK   55  A    between atoms: _122  and  _124
REMARK   56  A    between atoms: _124  and  _125
REMARK   57  A    between atoms: _124  and  _127
REMARK   58  A    between atoms: _127  and  _128
REMARK   59  A    between atoms: _130  and  _132
REMARK   60  A    between atoms: _132  and  _133
REMARK   61  A    between atoms: _132  and  _135
REMARK   62  A    between atoms: _138  and  _140
REMARK   63  A    between atoms: _140  and  _141
REMARK   64  A    between atoms: _140  and  _143
REMARK   65  A    between atoms: _143  and  _144
REMARK   66  A    between atoms: _147  and  _149
REMARK   67  A    between atoms: _149  and  _150
REMARK   68  A    between atoms: _149  and  _152
REMARK   69  A    between atoms: _152  and  _153
REMARK   70  A    between atoms: _156  and  _158
REMARK   71  A    between atoms: _158  and  _159
REMARK   72  A    between atoms: _158  and  _161
REMARK   73  A    between atoms: _161  and  _162
REMARK   74  A    between atoms: _167  and  _169
REMARK   75  A    between atoms: _169  and  _170
REMARK   76  A    between atoms: _169  and  _172
REMARK   77  A    between atoms: _172  and  _173
REMARK   78  A    between atoms: _173  and  _174
REMARK   79  A    between atoms: _174  and  _175
REMARK   80  A    between atoms: _175  and  _176
REMARK   81  A    between atoms: _180  and  _182
REMARK   82  A    between atoms: _182  and  _183
REMARK   83  A    between atoms: _182  and  _185
REMARK   84  A    between atoms: _185  and  _186
REMARK   85  A    between atoms: _186  and  _187
REMARK   86  A    between atoms: _190  and  _192
REMARK   87  A    between atoms: _192  and  _193
REMARK   88  A    between atoms: _192  and  _195
REMARK   89  A    between atoms: _195  and  _196
REMARK   90  A    between atoms: _199  and  _201
REMARK   91  A    between atoms: _201  and  _202
REMARK   92  A    between atoms: _201  and  _204
REMARK   93  A    between atoms: _204  and  _205
REMARK   94  A    between atoms: _205  and  _206
REMARK   95  A    between atoms: _206  and  _207
REMARK   96  A    between atoms: _207  and  _208
REMARK   97  A    between atoms: _212  and  _214
REMARK   98  A    between atoms: _214  and  _215
REMARK   99  A    between atoms: _214  and  _217
REMARK  100  A    between atoms: _217  and  _218
REMARK  101  A    between atoms: _221  and  _223
REMARK  102  A    between atoms: _223  and  _224
REMARK  103  A    between atoms: _223  and  _226
REMARK  104  A    between atoms: _226  and  _227
REMARK  105  A    between atoms: _229  and  _231
REMARK  106  A    between atoms: _231  and  _232
REMARK  107  A    between atoms: _231  and  _234
REMARK  108  A    between atoms: _234  and  _235
REMARK  109  A    between atoms: _240  and  _241
REMARK  110  A    between atoms: _243  and  _245
REMARK  111  A    between atoms: _245  and  _246
REMARK  112  A    between atoms: _245  and  _248
REMARK  113  A    between atoms: _248  and  _249
REMARK  114  A    between atoms: _255  and  _257
REMARK  115  A    between atoms: _257  and  _258
REMARK  116  A    between atoms: _260  and  _262
REMARK  117  A    between atoms: _262  and  _263
REMARK  118  A    between atoms: _262  and  _265
REMARK  119  A    between atoms: _265  and  _266
REMARK  120  A    between atoms: _266  and  _267
REMARK  121  A    between atoms: _270  and  _272
REMARK  122  A    between atoms: _272  and  _273
REMARK  123  A    between atoms: _272  and  _275
REMARK  124  A    between atoms: _275  and  _276
REMARK  125  A    between atoms: _279  and  _281
REMARK  126  A    between atoms: _281  and  _282
REMARK  127  A    between atoms: _281  and  _284
REMARK  128  A    between atoms: _286  and  _288
REMARK  129  A    between atoms: _288  and  _289
REMARK  130  A    between atoms: _288  and  _291
REMARK  131  A    between atoms: _291  and  _292
REMARK  132  A    between atoms: _295  and  _297
REMARK  133  A    between atoms: _297  and  _298
REMARK  134  A    between atoms: _297  and  _300
REMARK  135  A    between atoms: _300  and  _301
REMARK  136  A    between atoms: _304  and  _306
REMARK  137  A    between atoms: _306  and  _307
REMARK  138  A    between atoms: _306  and  _309
REMARK  139  A    between atoms: _309  and  _310
REMARK  140  A    between atoms: _313  and  _315
REMARK  141  A    between atoms: _315  and  _316
REMARK  142  A    between atoms: _315  and  _318
REMARK  143  A    between atoms: _318  and  _319
REMARK  144  A    between atoms: _319  and  _320
REMARK  145  A    between atoms: _320  and  _321
REMARK  146  A    between atoms: _330  and  _332
REMARK  147  A    between atoms: _332  and  _333
REMARK  148  A    between atoms: _335  and  _337
REMARK  149  A    between atoms: _337  and  _338
REMARK  150  A    between atoms: _337  and  _340
REMARK  151  A    between atoms: _340  and  _341
REMARK  152  A    between atoms: _341  and  _342
REMARK  153  A    between atoms: _342  and  _343
REMARK  154  A    between atoms: _352  and  _354
REMARK  155  A    between atoms: _354  and  _355
REMARK  156  A    between atoms: _354  and  _357
REMARK  157  A    between atoms: _357  and  _358
REMARK  158  A    between atoms: _358  and  _359
REMARK  159  A    between atoms: _359  and  _360
REMARK  160  A    between atoms: _369  and  _371
REMARK  161  A    between atoms: _371  and  _372
REMARK  162  A    between atoms: _371  and  _374
REMARK  163  A    between atoms: _374  and  _375
REMARK  164  A    between atoms: _378  and  _380
REMARK  165  A    between atoms: _380  and  _381
REMARK  166  A    between atoms: _384  and  _386
REMARK  167  A    between atoms: _386  and  _387
REMARK  168  A    between atoms: _386  and  _389
REMARK  169  A    between atoms: _389  and  _390
REMARK  170  A    between atoms: _392  and  _394
REMARK  171  A    between atoms: _394  and  _395
REMARK  172  A    between atoms: _394  and  _397
REMARK  173  A    between atoms: _400  and  _402
REMARK  174  A    between atoms: _402  and  _403
REMARK  175  A    between atoms: _402  and  _405
REMARK  176  A    between atoms: _408  and  _410
REMARK  177  A    between atoms: _410  and  _411
REMARK  178  A    between atoms: _414  and  _416
REMARK  179  A    between atoms: _416  and  _417
REMARK  180  A    between atoms: _416  and  _419
REMARK  181  A    between atoms: _419  and  _420
REMARK  182  A    between atoms: _423  and  _425
REMARK  183  A    between atoms: _425  and  _426
REMARK  184  A    between atoms: _425  and  _428
REMARK  185  A    between atoms: _428  and  _429
REMARK  186  A    between atoms: _432  and  _434
REMARK  187  A    between atoms: _434  and  _435
REMARK  188  A    between atoms: _434  and  _437
REMARK  189  A    between atoms: _437  and  _438
REMARK  190  A    between atoms: _438  and  _439
REMARK  191  A    between atoms: _439  and  _440
REMARK  192  A    between atoms: _449  and  _451
REMARK  193  A    between atoms: _451  and  _452
REMARK  194  A    between atoms: _451  and  _454
REMARK  195  A    between atoms: _454  and  _455
REMARK  196  A    between atoms: _458  and  _460
REMARK  197  A    between atoms: _460  and  _461
REMARK  198  A    between atoms: _460  and  _463
REMARK  199  A    between atoms: _463  and  _464
REMARK  200  A    between atoms: _467  and  _469
REMARK  201  A    between atoms: _469  and  _470
REMARK  202  A    between atoms: _469  and  _472
REMARK  203  A    between atoms: _472  and  _473
REMARK  204  A    between atoms: _473  and  _474
REMARK  205  A    between atoms: _474  and  _475
REMARK  206  A    between atoms: _484  and  _486
REMARK  207  A    between atoms: _486  and  _487
REMARK  208  A    between atoms: _486  and  _489
REMARK  209  A    between atoms: _489  and  _490
REMARK  210  A    between atoms: _493  and  _495
REMARK  211  A    between atoms: _495  and  _496
REMARK  212  A    between atoms: _498  and  _500
REMARK  213  A    between atoms: _500  and  _501
REMARK  214  A    between atoms: _500  and  _503
REMARK  215  A    between atoms: _503  and  _504
REMARK  216  A    between atoms: _504  and  _505
REMARK  217  A    between atoms: _505  and  _506
REMARK  218  A    between atoms: _506  and  _507
REMARK                            x       y       z     vdW  Elec       q    Type
REMARK                         _______ _______ _______ _____ _____    ______ ____
ROOT
ATOM      1  C   GLU A   3       7.133   8.242  10.999  0.00  0.00    +0.241 C 
ATOM      2  N   THR A   4       6.330   9.256  11.286  0.00  0.00    -0.295 N 
ATOM      3  H   THR A   4       6.732  10.122  11.699  0.00  0.00    +0.150 HD
ATOM      4  O   GLU A   3       6.738   7.173  10.537  0.00  0.00    -0.273 OA
ENDROOT
BRANCH   2   5
ATOM      5  CA  THR A   4       4.913   9.186  11.038  0.00  0.00    +0.176 C 
BRANCH   5   6
ATOM      6  C   THR A   4       4.598   9.904   9.742  0.00  0.00    +0.243 C 
ATOM      7  O   THR A   4       5.203  10.925   9.415  0.00  0.00    -0.273 OA
ATOM      8  N   LYS A   5       3.654   9.357   8.998  0.00  0.00    -0.297 N 
ATOM      9  H   LYS A   5       3.180   8.491   9.324  0.00  0.00    +0.150 HD
BRANCH   8  10
ATOM     10  CA  LYS A   5       3.275   9.943   7.746  0.00  0.00    +0.149 C 
BRANCH  10  11
ATOM     11  C   LYS A   5       1.860  10.511   7.831  0.00  0.00    +0.241 C 
ATOM     12  O   LYS A   5       0.998  10.006   8.572  0.00  0.00    -0.273 OA
ATOM     13  N   LEU A   6       1.671  11.595   7.085  0.00  0.00    -0.298 N 
ATOM     14  H   LEU A   6       2.485  11.980   6.565  0.00  0.00    +0.150 HD
BRANCH  13  15
ATOM     15  CA  LEU A   6       0.386  12.276   6.953  0.00  0.00    +0.137 C 
BRANCH  15  16
ATOM     16  C   LEU A   6       0.157  12.601   5.487  0.00  0.00    +0.227 C 
ATOM     17  O   LEU A   6       1.078  12.976   4.791  0.00  0.00    -0.286 OA
ENDBRANCH  15  16
BRANCH  15  18
ATOM     18  CB  LEU A   6       0.397  13.588   7.754  0.00  0.00    +0.028 C 
BRANCH  18  19
ATOM     19  CG  LEU A   6       0.722  13.475   9.236  0.00  0.00    +0.002 C 
ATOM     20  CD2 LEU A   6      -0.316  12.607   9.959  0.00  0.00    +0.000 C 
ATOM     21  CD1 LEU A   6       0.779  14.876   9.829  0.00  0.00    +0.000 C 
ENDBRANCH  18  19
ENDBRANCH  15  18
ENDBRANCH  13  15
ENDBRANCH  10  11
BRANCH  10  22
ATOM     22  CB  LYS A   5       3.430   8.923   6.610  0.00  0.00    +0.029 C 
BRANCH  22  23
ATOM     23  CG  LYS A   5       4.898   8.704   6.251  0.00  0.00    +0.000 C 
BRANCH  23  24
ATOM     24  CD  LYS A   5       5.096   8.279   4.809  0.00  0.00    -0.024 C 
BRANCH  24  25
ATOM     25  CE  LYS A   5       6.552   8.429   4.366  0.00  0.00    -0.086 C 
BRANCH  25  26
ATOM     26  NZ  LYS A   5       7.439   7.387   4.932  0.00  0.00    +0.380 N 
ATOM     27  HZ1 LYS A   5       7.417   7.441   5.970  0.00  0.00    -0.089 HD
ATOM     28  HZ2 LYS A   5       7.110   6.449   4.625  0.00  0.00    -0.089 HD
ATOM     29  HZ3 LYS A   5       8.411   7.541   4.596  0.00  0.00    -0.089 HD
ENDBRANCH  25  26
ENDBRANCH  24  25
ENDBRANCH  23  24
ENDBRANCH  22  23
ENDBRANCH  10  22
ENDBRANCH   8  10
ENDBRANCH   5   6
BRANCH   5  30
ATOM     30  CB  THR A   4       4.127   9.799  12.192  0.00  0.00    +0.137 C 
ATOM     31  CG2 THR A   4       2.604   9.640  11.986  0.00  0.00    +0.034 C 
BRANCH  30  32
ATOM     32  OG1 THR A   4       4.513   9.136  13.390  0.00  0.00    -0.382 OA
ATOM     33  HG1 THR A   4       4.013   9.520  14.154  0.00  0.00    +0.210 HD
ENDBRANCH  30  32
ENDBRANCH   5  30
ENDBRANCH   2   5
BRANCH   1  34
ATOM     34  CA  GLU A   3       8.598   8.448  11.294  0.00  0.00    +0.149 C 
BRANCH  34  37
ATOM     35  C   LYS A   2       9.540   7.546  13.370  0.00  0.00    +0.241 C 
ATOM     36  O   LYS A   2       9.518   8.644  13.938  0.00  0.00    -0.273 OA
ATOM     37  N   GLU A   3       9.108   7.371  12.120  0.00  0.00    -0.297 N 
ATOM     38  H   GLU A   3       9.139   6.413  11.717  0.00  0.00    +0.150 HD
BRANCH  35  39
ATOM     39  CA  LYS A   2      10.200   6.331  14.046  0.00  0.00    +0.149 C 
BRANCH  39  41
ATOM     40  C   ASN A   1      11.373   7.622  15.702  0.00  0.00    +0.239 C 
ATOM     41  N   LYS A   2      10.393   6.775  15.422  0.00  0.00    -0.297 N 
ATOM     42  H   LYS A   2       9.767   6.430  16.177  0.00  0.00    +0.150 HD
ATOM     43  O   ASN A   1      12.209   7.956  14.864  0.00  0.00    -0.274 OA
BRANCH  40  44
ATOM     44  CA  ASN A   1      11.454   8.185  17.103  0.00  0.00    +0.154 C 
BRANCH  44  45
ATOM     45  N   ASN A   1      12.700   8.952  17.130  0.00  0.00    -0.238 NA
ATOM     46  H   ASN A   1      12.998   9.454  16.269  0.00  0.00    +0.142 HD
ENDBRANCH  44  45
BRANCH  44  47
ATOM     47  CB  ASN A   1      10.246   9.073  17.416  0.00  0.00    +0.111 C 
BRANCH  47  48
ATOM     48  CG  ASN A   1       9.417   8.543  18.577  0.00  0.00    +0.221 C 
ATOM     49  OD1 ASN A   1       9.556   9.169  19.740  0.00  0.00    -0.275 OA
ATOM     50  ND2 ASN A   1       8.671   7.576  18.436  0.00  0.00    -0.329 N 
ATOM     51 HD21 ASN A   1       8.121   7.221  19.244  0.00  0.00    +0.145 HD
ATOM     52 HD22 ASN A   1       8.590   7.113  17.508  0.00  0.00    +0.145 HD
ENDBRANCH  47  48
ENDBRANCH  44  47
ENDBRANCH  40  44
ENDBRANCH  39  41
BRANCH  39  53
ATOM     53  CB  LYS A   2       9.137   5.220  13.958  0.00  0.00    +0.029 C 
BRANCH  53  54
ATOM     54  CG  LYS A   2       8.979   4.595  12.567  0.00  0.00    +0.000 C 
BRANCH  54  55
ATOM     55  CD  LYS A   2       8.858   3.086  12.601  0.00  0.00    -0.024 C 
BRANCH  55  56
ATOM     56  CE  LYS A   2      10.225   2.420  12.626  0.00  0.00    -0.086 C 
BRANCH  56  57
ATOM     57  NZ  LYS A   2      10.106   0.962  12.360  0.00  0.00    +0.380 N 
ATOM     58  HZ1 LYS A   2       9.506   0.526  13.089  0.00  0.00    -0.089 HD
ATOM     59  HZ2 LYS A   2      11.051   0.529  12.382  0.00  0.00    -0.089 HD
ATOM     60  HZ3 LYS A   2       9.678   0.815  11.424  0.00  0.00    -0.089 HD
ENDBRANCH  56  57
ENDBRANCH  55  56
ENDBRANCH  54  55
ENDBRANCH  53  54
ENDBRANCH  39  53
ENDBRANCH  35  39
ENDBRANCH  34  37
BRANCH  34  61
ATOM     61  CB  GLU A   3       9.404   8.293  10.010  0.00  0.00    +0.041 C 
BRANCH  61  62
ATOM     62  CG  GLU A   3       8.932   9.198   8.885  0.00  0.00    +0.116 C 
BRANCH  62  63
ATOM     63  CD  GLU A   3       9.408   8.747   7.523  0.00  0.00    +0.365 C 
ATOM     64  OE2 GLU A   3      10.476   8.124   7.434  0.00  0.00    -0.246 OA
ATOM     65  OE1 GLU A   3       8.704   9.026   6.538  0.00  0.00    -0.246 OA
ENDBRANCH  62  63
ENDBRANCH  61  62
ENDBRANCH  34  61
ENDBRANCH   1  34
TORSDOF 31
REMARK  Name = ../refined-set-2016/4nvp/4nvp_pocket.pdb
REMARK  218 active torsions:
REMARK  status: ('A' for Active; 'I' for Inactive)
REMARK    1  A    between atoms: _1  and  _3
REMARK    2  A    between atoms: _3  and  _4
REMARK    3  A    between atoms: _3  and  _6
REMARK    4  A    between atoms: _6  and  _7
REMARK    5  A    between atoms: _10  and  _12
REMARK    6  A    between atoms: _12  and  _13
REMARK    7  A    between atoms: _12  and  _15
REMARK    8  A    between atoms: _15  and  _16
REMARK    9  A    between atoms: _16  and  _17
REMARK   10  A    between atoms: _17  and  _18
REMARK   11  A    between atoms: _27  and  _29
REMARK   12  A    between atoms: _29  and  _30
REMARK   13  A    between atoms: _29  and  _32
REMARK   14  A    between atoms: _32  and  _33
REMARK   15  A    between atoms: _33  and  _34
REMARK   16  A    between atoms: _37  and  _39
REMARK   17  A    between atoms: _39  and  _40
REMARK   18  A    between atoms: _42  and  _44
REMARK   19  A    between atoms: _44  and  _45
REMARK   20  A    between atoms: _44  and  _47
REMARK   21  A    between atoms: _47  and  _48
REMARK   22  A    between atoms: _51  and  _53
REMARK   23  A    between atoms: _53  and  _54
REMARK   24  A    between atoms: _53  and  _56
REMARK   25  A    between atoms: _56  and  _57
REMARK   26  A    between atoms: _60  and  _62
REMARK   27  A    between atoms: _62  and  _63
REMARK   28  A    between atoms: _65  and  _67
REMARK   29  A    between atoms: _67  and  _68
REMARK   30  A    between atoms: _67  and  _70
REMARK   31  A    between atoms: _70  and  _71
REMARK   32  A    between atoms: _71  and  _72
REMARK   33  A    between atoms: _72  and  _73
REMARK   34  A    between atoms: _73  and  _74
REMARK   35  A    between atoms: _78  and  _80
REMARK   36  A    between atoms: _80  and  _81
REMARK   37  A    between atoms: _80  and  _83
REMARK   38  A    between atoms: _83  and  _84
REMARK   39  A    between atoms: _84  and  _85
REMARK   40  A    between atoms: _85  and  _86
REMARK   41  A    between atoms: _86  and  _87
REMARK   42  A    between atoms: _91  and  _93
REMARK   43  A    between atoms: _93  and  _94
REMARK   44  A    between atoms: _93  and  _96
REMARK   45  A    between atoms: _96  and  _97
REMARK   46  A    between atoms: _97  and  _98
REMARK   47  A    between atoms: _100  and  _102
REMARK   48  A    between atoms: _102  and  _103
REMARK   49  A    between atoms: _102  and  _105
REMARK   50  A    between atoms: _105  and  _106
REMARK   51  A    between atoms: _111  and  _112
REMARK   52  A    between atoms: _114  and  _116
REMARK   53  A    between atoms: _116  and  _117
REMARK   54  A    between atoms: _116  and  _119
REMARK   55  A    between atoms: _122  and  _124
REMARK   56  A    between atoms: _124  and  _125
REMARK   57  A    between atoms: _124  and  _127
REMARK   58  A    between atoms: _127  and  _128
REMARK   59  A    between atoms: _130  and  _132
REMARK   60  A    between atoms: _132  and  _133
REMARK   61  A    between atoms: _132  and  _135
REMARK   62  A    between atoms: _138  and  _140
REMARK   63  A    between atoms: _140  and  _141
REMARK   64  A    between atoms: _140  and  _143
REMARK   65  A    between atoms: _143  and  _144
REMARK   66  A    between atoms: _147  and  _149
REMARK   67  A    between atoms: _149  and  _150
REMARK   68  A    between atoms: _149  and  _152
REMARK   69  A    between atoms: _152  and  _153
REMARK   70  A    between atoms: _156  and  _158
REMARK   71  A    between atoms: _158  and  _159
REMARK   72  A    between atoms: _158  and  _161
REMARK   73  A    between atoms: _161  and  _162
REMARK   74  A    between atoms: _167  and  _169
REMARK   75  A    between atoms: _169  and  _170
REMARK   76  A    between atoms: _169  and  _172
REMARK   77  A    between atoms: _172  and  _173
REMARK   78  A    between atoms: _173  and  _174
REMARK   79  A    between atoms: _174  and  _175
REMARK   80  A    between atoms: _175  and  _176
REMARK   81  A    between atoms: _180  and  _182
REMARK   82  A    between atoms: _182  and  _183
REMARK   83  A    between atoms: _182  and  _185
REMARK   84  A    between atoms: _185  and  _186
REMARK   85  A    between atoms: _186  and  _187
REMARK   86  A    between atoms: _190  and  _192
REMARK   87  A    between atoms: _192  and  _193
REMARK   88  A    between atoms: _192  and  _195
REMARK   89  A    between atoms: _195  and  _196
REMARK   90  A    between atoms: _199  and  _201
REMARK   91  A    between atoms: _201  and  _202
REMARK   92  A    between atoms: _201  and  _204
REMARK   93  A    between atoms: _204  and  _205
REMARK   94  A    between atoms: _205  and  _206
REMARK   95  A    between atoms: _206  and  _207
REMARK   96  A    between atoms: _207  and  _208
REMARK   97  A    between atoms: _212  and  _214
REMARK   98  A    between atoms: _214  and  _215
REMARK   99  A    between atoms: _214  and  _217
REMARK  100  A    between atoms: _217  and  _218
REMARK  101  A    between atoms: _221  and  _223
REMARK  102  A    between atoms: _223  and  _224
REMARK  103  A    between atoms: _223  and  _226
REMARK  104  A    between atoms: _226  and  _227
REMARK  105  A    between atoms: _229  and  _231
REMARK  106  A    between atoms: _231  and  _232
REMARK  107  A    between atoms: _231  and  _234
REMARK  108  A    between atoms: _234  and  _235
REMARK  109  A    between atoms: _240  and  _241
REMARK  110  A    between atoms: _243  and  _245
REMARK  111  A    between atoms: _245  and  _246
REMARK  112  A    between atoms: _245  and  _248
REMARK  113  A    between atoms: _248  and  _249
REMARK  114  A    between atoms: _255  and  _257
REMARK  115  A    between atoms: _257  and  _258
REMARK  116  A    between atoms: _260  and  _262
REMARK  117  A    between atoms: _262  and  _263
REMARK  118  A    between atoms: _262  and  _265
REMARK  119  A    between atoms: _265  and  _266
REMARK  120  A    between atoms: _266  and  _267
REMARK  121  A    between atoms: _270  and  _272
REMARK  122  A    between atoms: _272  and  _273
REMARK  123  A    between atoms: _272  and  _275
REMARK  124  A    between atoms: _275  and  _276
REMARK  125  A    between atoms: _279  and  _281
REMARK  126  A    between atoms: _281  and  _282
REMARK  127  A    between atoms: _281  and  _284
REMARK  128  A    between atoms: _286  and  _288
REMARK  129  A    between atoms: _288  and  _289
REMARK  130  A    between atoms: _288  and  _291
REMARK  131  A    between atoms: _291  and  _292
REMARK  132  A    between atoms: _295  and  _297
REMARK  133  A    between atoms: _297  and  _298
REMARK  134  A    between atoms: _297  and  _300
REMARK  135  A    between atoms: _300  and  _301
REMARK  136  A    between atoms: _304  and  _306
REMARK  137  A    between atoms: _306  and  _307
REMARK  138  A    between atoms: _306  and  _309
REMARK  139  A    between atoms: _309  and  _310
REMARK  140  A    between atoms: _313  and  _315
REMARK  141  A    between atoms: _315  and  _316
REMARK  142  A    between atoms: _315  and  _318
REMARK  143  A    between atoms: _318  and  _319
REMARK  144  A    between atoms: _319  and  _320
REMARK  145  A    between atoms: _320  and  _321
REMARK  146  A    between atoms: _330  and  _332
REMARK  147  A    between atoms: _332  and  _333
REMARK  148  A    between atoms: _335  and  _337
REMARK  149  A    between atoms: _337  and  _338
REMARK  150  A    between atoms: _337  and  _340
REMARK  151  A    between atoms: _340  and  _341
REMARK  152  A    between atoms: _341  and  _342
REMARK  153  A    between atoms: _342  and  _343
REMARK  154  A    between atoms: _352  and  _354
REMARK  155  A    between atoms: _354  and  _355
REMARK  156  A    between atoms: _354  and  _357
REMARK  157  A    between atoms: _357  and  _358
REMARK  158  A    between atoms: _358  and  _359
REMARK  159  A    between atoms: _359  and  _360
REMARK  160  A    between atoms: _369  and  _371
REMARK  161  A    between atoms: _371  and  _372
REMARK  162  A    between atoms: _371  and  _374
REMARK  163  A    between atoms: _374  and  _375
REMARK  164  A    between atoms: _378  and  _380
REMARK  165  A    between atoms: _380  and  _381
REMARK  166  A    between atoms: _384  and  _386
REMARK  167  A    between atoms: _386  and  _387
REMARK  168  A    between atoms: _386  and  _389
REMARK  169  A    between atoms: _389  and  _390
REMARK  170  A    between atoms: _392  and  _394
REMARK  171  A    between atoms: _394  and  _395
REMARK  172  A    between atoms: _394  and  _397
REMARK  173  A    between atoms: _400  and  _402
REMARK  174  A    between atoms: _402  and  _403
REMARK  175  A    between atoms: _402  and  _405
REMARK  176  A    between atoms: _408  and  _410
REMARK  177  A    between atoms: _410  and  _411
REMARK  178  A    between atoms: _414  and  _416
REMARK  179  A    between atoms: _416  and  _417
REMARK  180  A    between atoms: _416  and  _419
REMARK  181  A    between atoms: _419  and  _420
REMARK  182  A    between atoms: _423  and  _425
REMARK  183  A    between atoms: _425  and  _426
REMARK  184  A    between atoms: _425  and  _428
REMARK  185  A    between atoms: _428  and  _429
REMARK  186  A    between atoms: _432  and  _434
REMARK  187  A    between atoms: _434  and  _435
REMARK  188  A    between atoms: _434  and  _437
REMARK  189  A    between atoms: _437  and  _438
REMARK  190  A    between atoms: _438  and  _439
REMARK  191  A    between atoms: _439  and  _440
REMARK  192  A    between atoms: _449  and  _451
REMARK  193  A    between atoms: _451  and  _452
REMARK  194  A    between atoms: _451  and  _454
REMARK  195  A    between atoms: _454  and  _455
REMARK  196  A    between atoms: _458  and  _460
REMARK  197  A    between atoms: _460  and  _461
REMARK  198  A    between atoms: _460  and  _463
REMARK  199  A    between atoms: _463  and  _464
REMARK  200  A    between atoms: _467  and  _469
REMARK  201  A    between atoms: _469  and  _470
REMARK  202  A    between atoms: _469  and  _472
REMARK  203  A    between atoms: _472  and  _473
REMARK  204  A    between atoms: _473  and  _474
REMARK  205  A    between atoms: _474  and  _475
REMARK  206  A    between atoms: _484  and  _486
REMARK  207  A    between atoms: _486  and  _487
REMARK  208  A    between atoms: _486  and  _489
REMARK  209  A    between atoms: _489  and  _490
REMARK  210  A    between atoms: _493  and  _495
REMARK  211  A    between atoms: _495  and  _496
REMARK  212  A    between atoms: _498  and  _500
REMARK  213  A    between atoms: _500  and  _501
REMARK  214  A    between atoms: _500  and  _503
REMARK  215  A    between atoms: _503  and  _504
REMARK  216  A    between atoms: _504  and  _505
REMARK  217  A    between atoms: _505  and  _506
REMARK  218  A    between atoms: _506  and  _507
REMARK                            x       y       z     vdW  Elec       q    Type
REMARK                         _______ _______ _______ _____ _____    ______ ____
ROOT
ATOM      1  CA  THR A  10       1.664  26.230  23.039  0.00  0.00    +0.176 C 
ENDROOT
BRANCH   1   2
ATOM      2  C   THR A  10       2.420  27.551  23.014  0.00  0.00    +0.243 C 
ATOM      3  O   THR A  10       2.805  28.048  24.050  0.00  0.00    -0.273 OA
ATOM      4  N   ARG A  11       2.687  28.074  21.826  0.00  0.00    -0.297 N 
ATOM      5  H   ARG A  11       2.239  27.653  20.987  0.00  0.00    +0.150 HD
BRANCH   4   6
ATOM      6  CA  ARG A  11       3.585  29.219  21.637  0.00  0.00    +0.149 C 
BRANCH   6   7
ATOM      7  C   ARG A  11       5.051  28.937  21.923  0.00  0.00    +0.241 C 
ATOM      8  O   ARG A  11       5.842  29.879  22.067  0.00  0.00    -0.273 OA
ATOM      9  N   GLY A  12       5.415  27.656  21.968  0.00  0.00    -0.295 N 
ATOM     10  H   GLY A  12       4.678  26.923  21.928  0.00  0.00    +0.150 HD
BRANCH   9  11
ATOM     11  CA  GLY A  12       6.801  27.248  22.070  0.00  0.00    +0.176 C 
BRANCH  11  12
ATOM     12  C   GLY A  12       7.405  27.073  20.687  0.00  0.00    +0.243 C 
ATOM     13  N   ARG A  13       8.227  26.039  20.519  0.00  0.00    -0.297 N 
ATOM     14  H   ARG A  13       8.348  25.363  21.300  0.00  0.00    +0.150 HD
ATOM     15  O   GLY A  12       7.134  27.869  19.790  0.00  0.00    -0.273 OA
BRANCH  13  16
ATOM     16  CA  ARG A  13       8.963  25.820  19.282  0.00  0.00    +0.149 C 
BRANCH  16  17
ATOM     17  C   ARG A  13       8.374  24.612  18.562  0.00  0.00    +0.241 C 
ATOM     18  O   ARG A  13       7.548  23.897  19.121  0.00  0.00    -0.273 OA
ATOM     19  N   ARG A  14       8.795  24.390  17.318  0.00  0.00    -0.297 N 
ATOM     20  H   ARG A  14       9.454  25.063  16.876  0.00  0.00    +0.150 HD
BRANCH  19  21
ATOM     21  CA  ARG A  14       8.352  23.221  16.559  0.00  0.00    +0.149 C 
BRANCH  21  22
ATOM     22  C   ARG A  14       8.806  21.920  17.200  0.00  0.00    +0.241 C 
ATOM     23  O   ARG A  14       9.993  21.755  17.534  0.00  0.00    -0.273 OA
ATOM     24  N   THR A  15       7.862  20.986  17.324  0.00  0.00    -0.295 N 
ATOM     25  H   THR A  15       6.918  21.171  16.930  0.00  0.00    +0.150 HD
BRANCH  24  26
ATOM     26  CA  THR A  15       8.108  19.718  17.991  0.00  0.00    +0.176 C 
BRANCH  26  27
ATOM     27  C   THR A  15       8.528  18.591  17.047  0.00  0.00    +0.243 C 
ATOM     28  O   THR A  15       8.575  17.423  17.443  0.00  0.00    -0.273 OA
ATOM     29  N   ALA A  16       8.824  18.940  15.802  0.00  0.00    -0.297 N 
ATOM     30  H   ALA A  16       8.792  19.946  15.539  0.00  0.00    +0.150 HD
BRANCH  29  31
ATOM     31  CA  ALA A  16       9.189  17.966  14.801  0.00  0.00    +0.149 C 
ATOM     32  CB  ALA A  16       8.034  17.060  14.511  0.00  0.00    +0.031 C 
BRANCH  31  33
ATOM     33  C   ALA A  16       9.570  18.725  13.564  0.00  0.00    +0.241 C 
ATOM     34  O   ALA A  16       9.218  19.880  13.415  0.00  0.00    -0.273 OA
ATOM     35  N   SER A  17      10.328  18.090  12.694  0.00  0.00    -0.295 N 
ATOM     36  H   SER A  17      10.830  17.226  12.981  0.00  0.00    +0.150 HD
BRANCH  35  37
ATOM     37  CA  SER A  17      10.467  18.586  11.341  0.00  0.00    +0.178 C 
BRANCH  37  38
ATOM     38  C   SER A  17       9.408  17.939  10.534  0.00  0.00    +0.243 C 
ATOM     39  O   SER A  17       9.017  16.829  10.842  0.00  0.00    -0.273 OA
ATOM     40  N   VAL A  18       8.940  18.617   9.503  0.00  0.00    -0.298 N 
ATOM     41  H   VAL A  18       9.247  19.598   9.347  0.00  0.00    +0.150 HD
BRANCH  40  42
ATOM     42  CA  VAL A  18       8.001  18.001   8.588  0.00  0.00    +0.137 C 
BRANCH  42  43
ATOM     43  CB  VAL A  18       6.589  18.580   8.722  0.00  0.00    +0.026 C 
ATOM     44  CG2 VAL A  18       6.088  18.428  10.145  0.00  0.00    +0.002 C 
ATOM     45  CG1 VAL A  18       5.641  17.905   7.752  0.00  0.00    +0.002 C 
ENDBRANCH  42  43
BRANCH  42  46
ATOM     46  C   VAL A  18       8.521  18.186   7.189  0.00  0.00    +0.227 C 
ATOM     47  O   VAL A  18       8.789  19.316   6.749  0.00  0.00    -0.286 OA
ENDBRANCH  42  46
ENDBRANCH  40  42
ENDBRANCH  37  38
BRANCH  37  48
ATOM     48  CB  SER A  17      11.811  18.213  10.776  0.00  0.00    +0.166 C 
BRANCH  48  49
ATOM     49  OG  SER A  17      12.773  18.874  11.536  0.00  0.00    -0.380 OA
ATOM     50  H   SER A  17      13.674  18.651  11.192  0.00  0.00    +0.211 HD
ENDBRANCH  48  49
ENDBRANCH  37  48
ENDBRANCH  35  37
ENDBRANCH  31  33
ENDBRANCH  29  31
ENDBRANCH  26  27
BRANCH  26  51
ATOM     51  CB  THR A  15       6.859  19.260  18.768  0.00  0.00    +0.137 C 
ATOM     52  CG2 THR A  15       6.405  20.352  19.765  0.00  0.00    +0.034 C 
BRANCH  51  53
ATOM     53  OG1 THR A  15       5.808  18.940  17.848  0.00  0.00    -0.382 OA
ATOM     54  HG1 THR A  15       5.586  19.742  17.311  0.00  0.00    +0.210 HD
ENDBRANCH  51  53
ENDBRANCH  26  51
ENDBRANCH  24  26
ENDBRANCH  21  22
BRANCH  21  55
ATOM     55  CB  ARG A  14       8.895  23.276  15.146  0.00  0.00    +0.033 C 
BRANCH  55  56
ATOM     56  CG  ARG A  14       8.440  24.504  14.399  0.00  0.00    +0.045 C 
BRANCH  56  57
ATOM     57  CD  ARG A  14       6.940  24.463  14.185  0.00  0.00    +0.174 C 
BRANCH  57  58
ATOM     58  NE  ARG A  14       6.547  25.232  13.022  0.00  0.00    -0.265 N 
ATOM     59  CZ  ARG A  14       5.287  25.495  12.674  0.00  0.00    +0.342 C 
ATOM     60  NH2 ARG A  14       4.251  25.043  13.408  0.00  0.00    -0.292 N 
ATOM     61 HH21 ARG A  14       4.427  24.478  14.263  0.00  0.00    +0.255 HD
ATOM     62 HH22 ARG A  14       3.276  25.259  13.119  0.00  0.00    +0.255 HD
ATOM     63  NH1 ARG A  14       5.056  26.214  11.576  0.00  0.00    -0.292 N 
ATOM     64 HH11 ARG A  14       4.079  26.428  11.291  0.00  0.00    +0.255 HD
ATOM     65 HH12 ARG A  14       5.853  26.561  11.005  0.00  0.00    +0.255 HD
ATOM     66  HE  ARG A  14       7.303  25.606  12.414  0.00  0.00    +0.259 HD
ENDBRANCH  57  58
ENDBRANCH  56  57
ENDBRANCH  55  56
ENDBRANCH  21  55
ENDBRANCH  19  21
ENDBRANCH  16  17
BRANCH  16  67
ATOM     67  CB  ARG A  13      10.467  25.594  19.550  0.00  0.00    +0.033 C 
BRANCH  67  68
ATOM     68  CG  ARG A  13      11.201  26.714  20.315  0.00  0.00    +0.045 C 
BRANCH  68  69
ATOM     69  CD  ARG A  13      11.142  28.055  19.613  0.00  0.00    +0.174 C 
BRANCH  69  70
ATOM     70  NE  ARG A  13      12.064  29.032  20.193  0.00  0.00    -0.265 N 
ATOM     71  HE  ARG A  13      11.718  29.595  20.996  0.00  0.00    +0.259 HD
ATOM     72  CZ  ARG A  13      13.314  29.262  19.777  0.00  0.00    +0.342 C 
ATOM     73  NH2 ARG A  13      14.060  30.195  20.381  0.00  0.00    -0.292 N 
ATOM     74 HH21 ARG A  13      13.668  30.741  21.174  0.00  0.00    +0.255 HD
ATOM     75 HH22 ARG A  13      15.032  30.374  20.057  0.00  0.00    +0.255 HD
ATOM     76  NH1 ARG A  13      13.830  28.582  18.765  0.00  0.00    -0.292 N 
ATOM     77 HH11 ARG A  13      14.804  28.772  18.453  0.00  0.00    +0.255 HD
ATOM     78 HH12 ARG A  13      13.262  27.857  18.282  0.00  0.00    +0.255 HD
ENDBRANCH  69  70
ENDBRANCH  68  69
ENDBRANCH  67  68
ENDBRANCH  16  67
ENDBRANCH  13  16
ENDBRANCH  11  12
ENDBRANCH   9  11
ENDBRANCH   6   7
BRANCH   6  79
ATOM     79  CB  ARG A  11       3.121  30.420  22.438  0.00  0.00    +0.033 C 
BRANCH  79  80
ATOM     80  CG  ARG A  11       1.955  31.088  21.769  0.00  0.00    +0.045 C 
BRANCH  80  81
ATOM     81  CD  ARG A  11       1.095  31.799  22.777  0.00  0.00    +0.174 C 
BRANCH  81  82
ATOM     82  NE  ARG A  11       0.305  32.838  22.131  0.00  0.00    -0.265 N 
ATOM     83  HE  ARG A  11       0.578  33.826  22.305  0.00  0.00    +0.259 HD
ATOM     84  CZ  ARG A  11      -0.742  32.620  21.333  0.00  0.00    +0.342 C 
ATOM     85  NH2 ARG A  11      -1.158  31.377  21.044  0.00  0.00    -0.292 N 
ATOM     86 HH21 ARG A  11      -0.661  30.556  21.445  0.00  0.00    +0.255 HD
ATOM     87 HH22 ARG A  11      -1.977  31.235  20.419  0.00  0.00    +0.255 HD
ATOM     88  NH1 ARG A  11      -1.375  33.668  20.814  0.00  0.00    -0.292 N 
ATOM     89 HH11 ARG A  11      -1.051  34.632  21.033  0.00  0.00    +0.255 HD
ATOM     90 HH12 ARG A  11      -2.194  33.524  20.189  0.00  0.00    +0.255 HD
ENDBRANCH  81  82
ENDBRANCH  80  81
ENDBRANCH  79  80
ENDBRANCH   6  79
ENDBRANCH   4   6
ENDBRANCH   1   2
BRANCH   1  93
ATOM     91  C   LEU A   9      -0.555  26.489  21.993  0.00  0.00    +0.241 C 
ATOM     92  O   LEU A   9      -1.002  27.124  22.937  0.00  0.00    -0.273 OA
ATOM     93  N   THR A  10       0.698  26.037  21.946  0.00  0.00    -0.295 N 
ATOM     94  H   THR A  10       1.008  25.523  21.096  0.00  0.00    +0.150 HD
BRANCH  91  95
ATOM     95  CA  LEU A   9      -1.461  26.162  20.807  0.00  0.00    +0.149 C 
BRANCH  95  98
ATOM     96  C   LEU A   8      -0.529  27.584  19.072  0.00  0.00    +0.241 C 
ATOM     97  O   LEU A   8      -0.885  28.628  19.604  0.00  0.00    -0.273 OA
ATOM     98  N   LEU A   9      -0.807  26.379  19.543  0.00  0.00    -0.297 N 
ATOM     99  H   LEU A   9      -0.541  25.550  18.974  0.00  0.00    +0.150 HD
BRANCH  96 100
ATOM    100  CA  LEU A   8       0.227  27.605  17.767  0.00  0.00    +0.149 C 
BRANCH 100 103
ATOM    101  C   CYS A   7       2.345  26.625  18.366  0.00  0.00    +0.242 C 
ATOM    102  O   CYS A   7       2.609  27.603  19.033  0.00  0.00    -0.273 OA
ATOM    103  N   LEU A   8       1.213  26.539  17.708  0.00  0.00    -0.297 N 
ATOM    104  H   LEU A   8       1.018  25.694  17.135  0.00  0.00    +0.150 HD
BRANCH 101 105
ATOM    105  CA  CYS A   7       3.348  25.477  18.195  0.00  0.00    +0.160 C 
BRANCH 105 108
ATOM    106  C   ILE A   6       1.754  23.688  18.720  0.00  0.00    +0.241 C 
ATOM    107  O   ILE A   6       1.331  24.283  19.726  0.00  0.00    -0.273 OA
ATOM    108  N   CYS A   7       2.743  24.153  17.974  0.00  0.00    -0.296 N 
ATOM    109  H   CYS A   7       3.107  23.560  17.201  0.00  0.00    +0.150 HD
BRANCH 106 110
ATOM    110  CA  ILE A   6       1.100  22.392  18.238  0.00  0.00    +0.149 C 
BRANCH 110 113
ATOM    111  C   GLU A   5      -0.312  23.327  16.500  0.00  0.00    +0.241 C 
ATOM    112  O   GLU A   5      -0.787  24.165  17.248  0.00  0.00    -0.273 OA
ATOM    113  N   ILE A   6       0.687  22.518  16.850  0.00  0.00    -0.297 N 
ATOM    114  H   ILE A   6       1.180  21.967  16.118  0.00  0.00    +0.150 HD
BRANCH 111 115
ATOM    115  CA  GLU A   5      -0.817  23.234  15.103  0.00  0.00    +0.149 C 
BRANCH 115 117
ATOM    116  C   GLY A   4       1.091  23.268  13.603  0.00  0.00    +0.243 C 
ATOM    117  N   GLU A   5       0.163  22.583  14.247  0.00  0.00    -0.297 N 
ATOM    118  H   GLU A   5       0.132  21.549  14.139  0.00  0.00    +0.150 HD
ATOM    119  O   GLY A   4       1.243  24.483  13.734  0.00  0.00    -0.273 OA
BRANCH 116 120
ATOM    120  CA  GLY A   4       1.967  22.482  12.675  0.00  0.00    +0.176 C 
BRANCH 120 122
ATOM    121  C   PHE A   3       0.527  21.070  11.354  0.00  0.00    +0.241 C 
ATOM    122  N   GLY A   4       1.403  21.204  12.333  0.00  0.00    -0.295 N 
ATOM    123  H   GLY A   4       1.693  20.363  12.871  0.00  0.00    +0.150 HD
ATOM    124  O   PHE A   3       0.091  22.019  10.710  0.00  0.00    -0.273 OA
BRANCH 121 125
ATOM    125  CA  PHE A   3       0.073  19.647  11.072  0.00  0.00    +0.153 C 
BRANCH 125 128
ATOM    126  C   TYR A   2      -1.947  18.651  10.147  0.00  0.00    +0.241 C 
ATOM    127  O   TYR A   2      -1.847  17.640  10.843  0.00  0.00    -0.273 OA
ATOM    128  N   PHE A   3      -1.062  19.653  10.170  0.00  0.00    -0.297 N 
ATOM    129  H   PHE A   3      -1.191  20.458   9.524  0.00  0.00    +0.150 HD
BRANCH 126 130
ATOM    130  CA  TYR A   2      -3.132  18.831   9.220  0.00  0.00    +0.153 C 
BRANCH 130 132
ATOM    131  C   SER A   1      -4.182  17.158   7.840  0.00  0.00    +0.241 C 
ATOM    132  N   TYR A   2      -3.769  17.558   9.022  0.00  0.00    -0.297 N 
ATOM    133  H   TYR A   2      -3.908  16.932   9.841  0.00  0.00    +0.150 HD
ATOM    134  O   SER A   1      -4.092  17.864   6.825  0.00  0.00    -0.274 OA
BRANCH 131 135
ATOM    135  CA  SER A   1      -4.754  15.730   7.825  0.00  0.00    +0.174 C 
BRANCH 135 136
ATOM    136  N   SER A   1      -5.340  15.376   6.516  0.00  0.00    -0.236 NA
ATOM    137  H   SER A   1      -4.697  15.217   5.714  0.00  0.00    +0.142 HD
ENDBRANCH 135 136
BRANCH 135 138
ATOM    138  CB  SER A   1      -3.621  14.801   8.173  0.00  0.00    +0.163 C 
BRANCH 138 139
ATOM    139  OG  SER A   1      -3.807  13.555   7.564  0.00  0.00    -0.380 OA
ATOM    140  H   SER A   1      -3.839  13.671   6.581  0.00  0.00    +0.211 HD
ENDBRANCH 138 139
ENDBRANCH 135 138
ENDBRANCH 131 135
ENDBRANCH 130 132
BRANCH 130 141
ATOM    141  CB  TYR A   2      -4.125  19.849   9.812  0.00  0.00    +0.055 C 
BRANCH 141 142
ATOM    142  CG  TYR A   2      -4.693  19.451  11.135  0.00  0.00    -0.020 A 
ATOM    143  CD2 TYR A   2      -3.975  19.630  12.299  0.00  0.00    -0.001 A 
ATOM    144  CE2 TYR A   2      -4.506  19.271  13.525  0.00  0.00    +0.036 A 
ATOM    145  CZ  TYR A   2      -5.769  18.719  13.606  0.00  0.00    +0.134 A 
ATOM    146  CE1 TYR A   2      -6.521  18.527  12.456  0.00  0.00    +0.036 A 
ATOM    147  CD1 TYR A   2      -5.990  18.892  11.232  0.00  0.00    -0.001 A 
BRANCH 145 148
ATOM    148  OH  TYR A   2      -6.267  18.342  14.851  0.00  0.00    -0.506 OA
ATOM    149  HH  TYR A   2      -5.599  18.553  15.550  0.00  0.00    +0.292 HD
ENDBRANCH 145 148
ENDBRANCH 141 142
ENDBRANCH 130 141
ENDBRANCH 126 130
ENDBRANCH 125 128
BRANCH 125 150
ATOM    150  CB  PHE A   3       1.223  18.812  10.498  0.00  0.00    +0.055 C 
BRANCH 150 151
ATOM    151  CG  PHE A   3       1.693  19.263   9.149  0.00  0.00    -0.020 A 
ATOM    152  CD2 PHE A   3       2.749  20.196   9.028  0.00  0.00    -0.004 A 
ATOM    153  CE2 PHE A   3       3.191  20.627   7.780  0.00  0.00    -0.000 A 
ATOM    154  CZ  PHE A   3       2.602  20.118   6.631  0.00  0.00    -0.000 A 
ATOM    155  CE1 PHE A   3       1.572  19.182   6.734  0.00  0.00    -0.000 A 
ATOM    156  CD1 PHE A   3       1.123  18.749   7.989  0.00  0.00    -0.004 A 
ENDBRANCH 150 151
ENDBRANCH 125 150
ENDBRANCH 121 125
ENDBRANCH 120 122
ENDBRANCH 116 120
ENDBRANCH 115 117
BRANCH 115 157
ATOM    157  CB  GLU A   5      -2.170  22.498  15.065  0.00  0.00    +0.041 C 
BRANCH 157 158
ATOM    158  CG  GLU A   5      -2.310  21.216  15.891  0.00  0.00    +0.116 C 
BRANCH 158 159
ATOM    159  CD  GLU A   5      -1.594  19.993  15.348  0.00  0.00    +0.365 C 
ATOM    160  OE2 GLU A   5      -1.801  18.938  15.975  0.00  0.00    -0.246 OA
ATOM    161  OE1 GLU A   5      -0.838  20.048  14.343  0.00  0.00    -0.246 OA
ENDBRANCH 158 159
ENDBRANCH 157 158
ENDBRANCH 115 157
ENDBRANCH 111 115
ENDBRANCH 110 113
BRANCH 110 162
ATOM    162  CB  ILE A   6       2.007  21.179  18.450  0.00  0.00    +0.027 C 
ATOM    163  CG2 ILE A   6       2.298  20.997  19.930  0.00  0.00    +0.002 C 
BRANCH 162 164
ATOM    164  CG1 ILE A   6       1.309  19.917  17.957  0.00  0.00    +0.002 C 
ATOM    165  CD1 ILE A   6       1.894  18.614  18.464  0.00  0.00    +0.000 C 
ENDBRANCH 162 164
ENDBRANCH 110 162
ENDBRANCH 106 110
ENDBRANCH 105 108
BRANCH 105 166
ATOM    166  CB  CYS A   7       4.250  25.825  17.009  0.00  0.00    +0.098 C 
ATOM    167  SG  CYS A   7       5.744  26.690  17.491  0.00  0.00    -0.080 S 
ENDBRANCH 105 166
ENDBRANCH 101 105
ENDBRANCH 100 103
BRANCH 100 168
ATOM    168  CB  LEU A   8      -0.755  27.459  16.591  0.00  0.00    +0.029 C 
BRANCH 168 169
ATOM    169  CG  LEU A   8      -0.338  28.154  15.284  0.00  0.00    +0.002 C 
ATOM    170  CD2 LEU A   8       1.168  28.153  15.045  0.00  0.00    +0.000 C 
ATOM    171  CD1 LEU A   8      -1.082  27.517  14.137  0.00  0.00    +0.000 C 
ENDBRANCH 168 169
ENDBRANCH 100 168
ENDBRANCH  96 100
ENDBRANCH  95  98
BRANCH  95 172
ATOM    172  CB  LEU A   9      -1.893  24.707  20.920  0.00  0.00    +0.029 C 
BRANCH 172 173
ATOM    173  CG  LEU A   9      -2.906  24.151  19.916  0.00  0.00    +0.002 C 
ATOM    174  CD2 LEU A   9      -4.283  24.772  20.098  0.00  0.00    +0.000 C 
ATOM    175  CD1 LEU A   9      -2.976  22.627  20.003  0.00  0.00    +0.000 C 
ENDBRANCH 172 173
ENDBRANCH  95 172
ENDBRANCH  91  95
ENDBRANCH   1  93
BRANCH   1 176
ATOM    176  CB  THR A  10       2.770  25.142  23.024  0.00  0.00    +0.137 C 
ATOM    177  CG2 THR A  10       2.182  23.778  23.244  0.00  0.00    +0.034 C 
BRANCH 176 178
ATOM    178  OG1 THR A  10       3.492  25.153  21.776  0.00  0.00    -0.382 OA
ATOM    179  HG1 THR A  10       2.864  24.977  21.031  0.00  0.00    +0.210 HD
ENDBRANCH 176 178
ENDBRANCH   1 176
TORSDOF 72
REMARK  Name = ../refined-set-2016/4nvp/4nvp_pocket.pdb
REMARK  218 active torsions:
REMARK  status: ('A' for Active; 'I' for Inactive)
REMARK    1  A    between atoms: _1  and  _3
REMARK    2  A    between atoms: _3  and  _4
REMARK    3  A    between atoms: _3  and  _6
REMARK    4  A    between atoms: _6  and  _7
REMARK    5  A    between atoms: _10  and  _12
REMARK    6  A    between atoms: _12  and  _13
REMARK    7  A    between atoms: _12  and  _15
REMARK    8  A    between atoms: _15  and  _16
REMARK    9  A    between atoms: _16  and  _17
REMARK   10  A    between atoms: _17  and  _18
REMARK   11  A    between atoms: _27  and  _29
REMARK   12  A    between atoms: _29  and  _30
REMARK   13  A    between atoms: _29  and  _32
REMARK   14  A    between atoms: _32  and  _33
REMARK   15  A    between atoms: _33  and  _34
REMARK   16  A    between atoms: _37  and  _39
REMARK   17  A    between atoms: _39  and  _40
REMARK   18  A    between atoms: _42  and  _44
REMARK   19  A    between atoms: _44  and  _45
REMARK   20  A    between atoms: _44  and  _47
REMARK   21  A    between atoms: _47  and  _48
REMARK   22  A    between atoms: _51  and  _53
REMARK   23  A    between atoms: _53  and  _54
REMARK   24  A    between atoms: _53  and  _56
REMARK   25  A    between atoms: _56  and  _57
REMARK   26  A    between atoms: _60  and  _62
REMARK   27  A    between atoms: _62  and  _63
REMARK   28  A    between atoms: _65  and  _67
REMARK   29  A    between atoms: _67  and  _68
REMARK   30  A    between atoms: _67  and  _70
REMARK   31  A    between atoms: _70  and  _71
REMARK   32  A    between atoms: _71  and  _72
REMARK   33  A    between atoms: _72  and  _73
REMARK   34  A    between atoms: _73  and  _74
REMARK   35  A    between atoms: _78  and  _80
REMARK   36  A    between atoms: _80  and  _81
REMARK   37  A    between atoms: _80  and  _83
REMARK   38  A    between atoms: _83  and  _84
REMARK   39  A    between atoms: _84  and  _85
REMARK   40  A    between atoms: _85  and  _86
REMARK   41  A    between atoms: _86  and  _87
REMARK   42  A    between atoms: _91  and  _93
REMARK   43  A    between atoms: _93  and  _94
REMARK   44  A    between atoms: _93  and  _96
REMARK   45  A    between atoms: _96  and  _97
REMARK   46  A    between atoms: _97  and  _98
REMARK   47  A    between atoms: _100  and  _102
REMARK   48  A    between atoms: _102  and  _103
REMARK   49  A    between atoms: _102  and  _105
REMARK   50  A    between atoms: _105  and  _106
REMARK   51  A    between atoms: _111  and  _112
REMARK   52  A    between atoms: _114  and  _116
REMARK   53  A    between atoms: _116  and  _117
REMARK   54  A    between atoms: _116  and  _119
REMARK   55  A    between atoms: _122  and  _124
REMARK   56  A    between atoms: _124  and  _125
REMARK   57  A    between atoms: _124  and  _127
REMARK   58  A    between atoms: _127  and  _128
REMARK   59  A    between atoms: _130  and  _132
REMARK   60  A    between atoms: _132  and  _133
REMARK   61  A    between atoms: _132  and  _135
REMARK   62  A    between atoms: _138  and  _140
REMARK   63  A    between atoms: _140  and  _141
REMARK   64  A    between atoms: _140  and  _143
REMARK   65  A    between atoms: _143  and  _144
REMARK   66  A    between atoms: _147  and  _149
REMARK   67  A    between atoms: _149  and  _150
REMARK   68  A    between atoms: _149  and  _152
REMARK   69  A    between atoms: _152  and  _153
REMARK   70  A    between atoms: _156  and  _158
REMARK   71  A    between atoms: _158  and  _159
REMARK   72  A    between atoms: _158  and  _161
REMARK   73  A    between atoms: _161  and  _162
REMARK   74  A    between atoms: _167  and  _169
REMARK   75  A    between atoms: _169  and  _170
REMARK   76  A    between atoms: _169  and  _172
REMARK   77  A    between atoms: _172  and  _173
REMARK   78  A    between atoms: _173  and  _174
REMARK   79  A    between atoms: _174  and  _175
REMARK   80  A    between atoms: _175  and  _176
REMARK   81  A    between atoms: _180  and  _182
REMARK   82  A    between atoms: _182  and  _183
REMARK   83  A    between atoms: _182  and  _185
REMARK   84  A    between atoms: _185  and  _186
REMARK   85  A    between atoms: _186  and  _187
REMARK   86  A    between atoms: _190  and  _192
REMARK   87  A    between atoms: _192  and  _193
REMARK   88  A    between atoms: _192  and  _195
REMARK   89  A    between atoms: _195  and  _196
REMARK   90  A    between atoms: _199  and  _201
REMARK   91  A    between atoms: _201  and  _202
REMARK   92  A    between atoms: _201  and  _204
REMARK   93  A    between atoms: _204  and  _205
REMARK   94  A    between atoms: _205  and  _206
REMARK   95  A    between atoms: _206  and  _207
REMARK   96  A    between atoms: _207  and  _208
REMARK   97  A    between atoms: _212  and  _214
REMARK   98  A    between atoms: _214  and  _215
REMARK   99  A    between atoms: _214  and  _217
REMARK  100  A    between atoms: _217  and  _218
REMARK  101  A    between atoms: _221  and  _223
REMARK  102  A    between atoms: _223  and  _224
REMARK  103  A    between atoms: _223  and  _226
REMARK  104  A    between atoms: _226  and  _227
REMARK  105  A    between atoms: _229  and  _231
REMARK  106  A    between atoms: _231  and  _232
REMARK  107  A    between atoms: _231  and  _234
REMARK  108  A    between atoms: _234  and  _235
REMARK  109  A    between atoms: _240  and  _241
REMARK  110  A    between atoms: _243  and  _245
REMARK  111  A    between atoms: _245  and  _246
REMARK  112  A    between atoms: _245  and  _248
REMARK  113  A    between atoms: _248  and  _249
REMARK  114  A    between atoms: _255  and  _257
REMARK  115  A    between atoms: _257  and  _258
REMARK  116  A    between atoms: _260  and  _262
REMARK  117  A    between atoms: _262  and  _263
REMARK  118  A    between atoms: _262  and  _265
REMARK  119  A    between atoms: _265  and  _266
REMARK  120  A    between atoms: _266  and  _267
REMARK  121  A    between atoms: _270  and  _272
REMARK  122  A    between atoms: _272  and  _273
REMARK  123  A    between atoms: _272  and  _275
REMARK  124  A    between atoms: _275  and  _276
REMARK  125  A    between atoms: _279  and  _281
REMARK  126  A    between atoms: _281  and  _282
REMARK  127  A    between atoms: _281  and  _284
REMARK  128  A    between atoms: _286  and  _288
REMARK  129  A    between atoms: _288  and  _289
REMARK  130  A    between atoms: _288  and  _291
REMARK  131  A    between atoms: _291  and  _292
REMARK  132  A    between atoms: _295  and  _297
REMARK  133  A    between atoms: _297  and  _298
REMARK  134  A    between atoms: _297  and  _300
REMARK  135  A    between atoms: _300  and  _301
REMARK  136  A    between atoms: _304  and  _306
REMARK  137  A    between atoms: _306  and  _307
REMARK  138  A    between atoms: _306  and  _309
REMARK  139  A    between atoms: _309  and  _310
REMARK  140  A    between atoms: _313  and  _315
REMARK  141  A    between atoms: _315  and  _316
REMARK  142  A    between atoms: _315  and  _318
REMARK  143  A    between atoms: _318  and  _319
REMARK  144  A    between atoms: _319  and  _320
REMARK  145  A    between atoms: _320  and  _321
REMARK  146  A    between atoms: _330  and  _332
REMARK  147  A    between atoms: _332  and  _333
REMARK  148  A    between atoms: _335  and  _337
REMARK  149  A    between atoms: _337  and  _338
REMARK  150  A    between atoms: _337  and  _340
REMARK  151  A    between atoms: _340  and  _341
REMARK  152  A    between atoms: _341  and  _342
REMARK  153  A    between atoms: _342  and  _343
REMARK  154  A    between atoms: _352  and  _354
REMARK  155  A    between atoms: _354  and  _355
REMARK  156  A    between atoms: _354  and  _357
REMARK  157  A    between atoms: _357  and  _358
REMARK  158  A    between atoms: _358  and  _359
REMARK  159  A    between atoms: _359  and  _360
REMARK  160  A    between atoms: _369  and  _371
REMARK  161  A    between atoms: _371  and  _372
REMARK  162  A    between atoms: _371  and  _374
REMARK  163  A    between atoms: _374  and  _375
REMARK  164  A    between atoms: _378  and  _380
REMARK  165  A    between atoms: _380  and  _381
REMARK  166  A    between atoms: _384  and  _386
REMARK  167  A    between atoms: _386  and  _387
REMARK  168  A    between atoms: _386  and  _389
REMARK  169  A    between atoms: _389  and  _390
REMARK  170  A    between atoms: _392  and  _394
REMARK  171  A    between atoms: _394  and  _395
REMARK  172  A    between atoms: _394  and  _397
REMARK  173  A    between atoms: _400  and  _402
REMARK  174  A    between atoms: _402  and  _403
REMARK  175  A    between atoms: _402  and  _405
REMARK  176  A    between atoms: _408  and  _410
REMARK  177  A    between atoms: _410  and  _411
REMARK  178  A    between atoms: _414  and  _416
REMARK  179  A    between atoms: _416  and  _417
REMARK  180  A    between atoms: _416  and  _419
REMARK  181  A    between atoms: _419  and  _420
REMARK  182  A    between atoms: _423  and  _425
REMARK  183  A    between atoms: _425  and  _426
REMARK  184  A    between atoms: _425  and  _428
REMARK  185  A    between atoms: _428  and  _429
REMARK  186  A    between atoms: _432  and  _434
REMARK  187  A    between atoms: _434  and  _435
REMARK  188  A    between atoms: _434  and  _437
REMARK  189  A    between atoms: _437  and  _438
REMARK  190  A    between atoms: _438  and  _439
REMARK  191  A    between atoms: _439  and  _440
REMARK  192  A    between atoms: _449  and  _451
REMARK  193  A    between atoms: _451  and  _452
REMARK  194  A    between atoms: _451  and  _454
REMARK  195  A    between atoms: _454  and  _455
REMARK  196  A    between atoms: _458  and  _460
REMARK  197  A    between atoms: _460  and  _461
REMARK  198  A    between atoms: _460  and  _463
REMARK  199  A    between atoms: _463  and  _464
REMARK  200  A    between atoms: _467  and  _469
REMARK  201  A    between atoms: _469  and  _470
REMARK  202  A    between atoms: _469  and  _472
REMARK  203  A    between atoms: _472  and  _473
REMARK  204  A    between atoms: _473  and  _474
REMARK  205  A    between atoms: _474  and  _475
REMARK  206  A    between atoms: _484  and  _486
REMARK  207  A    between atoms: _486  and  _487
REMARK  208  A    between atoms: _486  and  _489
REMARK  209  A    between atoms: _489  and  _490
REMARK  210  A    between atoms: _493  and  _495
REMARK  211  A    between atoms: _495  and  _496
REMARK  212  A    between atoms: _498  and  _500
REMARK  213  A    between atoms: _500  and  _501
REMARK  214  A    between atoms: _500  and  _503
REMARK  215  A    between atoms: _503  and  _504
REMARK  216  A    between atoms: _504  and  _505
REMARK  217  A    between atoms: _505  and  _506
REMARK  218  A    between atoms: _506  and  _507
REMARK                            x       y       z     vdW  Elec       q    Type
REMARK                         _______ _______ _______ _____ _____    ______ ____
ROOT
ATOM      1  CA  LEU A   6       2.890  14.488  21.737  0.00  0.00    +0.149 C 
ENDROOT
BRANCH   1   2
ATOM      2  C   LEU A   6       3.215  13.195  22.464  0.00  0.00    +0.241 C 
ATOM      3  N   ASP A   7       2.207  12.664  23.137  0.00  0.00    -0.297 N 
ATOM      4  H   ASP A   7       1.328  13.213  23.226  0.00  0.00    +0.150 HD
ATOM      5  O   LEU A   6       4.331  12.693  22.400  0.00  0.00    -0.273 OA
BRANCH   3   6
ATOM      6  CA  ASP A   7       2.267  11.362  23.753  0.00  0.00    +0.160 C 
BRANCH   6   7
ATOM      7  C   ASP A   7       3.108  10.382  22.961  0.00  0.00    +0.241 C 
ATOM      8  O   ASP A   7       3.938   9.704  23.543  0.00  0.00    -0.273 OA
ATOM      9  N   ARG A   8       2.900  10.328  21.644  0.00  0.00    -0.297 N 
ATOM     10  H   ARG A   8       2.356  11.088  21.187  0.00  0.00    +0.150 HD
BRANCH   9  11
ATOM     11  CA  ARG A   8       3.417   9.226  20.821  0.00  0.00    +0.149 C 
BRANCH  11  12
ATOM     12  C   ARG A   8       4.886   9.368  20.462  0.00  0.00    +0.241 C 
ATOM     13  N   ILE A   9       5.363  10.602  20.348  0.00  0.00    -0.297 N 
ATOM     14  H   ILE A   9       4.698  11.401  20.312  0.00  0.00    +0.150 HD
ATOM     15  O   ARG A   8       5.578   8.368  20.306  0.00  0.00    -0.273 OA
BRANCH  13  16
ATOM     16  CA  ILE A   9       6.809  10.867  20.272  0.00  0.00    +0.149 C 
BRANCH  16  17
ATOM     17  C   ILE A   9       7.399  11.104  21.678  0.00  0.00    +0.241 C 
ATOM     18  N   GLY A  10       6.628  10.734  22.704  0.00  0.00    -0.295 N 
ATOM     19  H   GLY A  10       5.647  10.453  22.503  0.00  0.00    +0.150 HD
ATOM     20  O   ILE A   9       8.511  11.616  21.820  0.00  0.00    -0.273 OA
BRANCH  18  21
ATOM     21  CA  GLY A  10       7.083  10.701  24.090  0.00  0.00    +0.176 C 
BRANCH  21  22
ATOM     22  C   GLY A  10       7.382  12.061  24.673  0.00  0.00    +0.243 C 
ATOM     23  O   GLY A  10       8.468  12.273  25.187  0.00  0.00    -0.273 OA
ATOM     24  N   LYS A  11       6.415  12.978  24.602  0.00  0.00    -0.298 N 
ATOM     25  H   LYS A  11       5.505  12.714  24.174  0.00  0.00    +0.150 HD
BRANCH  24  26
ATOM     26  CA  LYS A  11       6.589  14.347  25.107  0.00  0.00    +0.137 C 
BRANCH  26  27
ATOM     27  C   LYS A  11       5.345  14.798  25.903  0.00  0.00    +0.227 C 
ATOM     28  O   LYS A  11       4.398  14.009  26.077  0.00  0.00    -0.286 OA
ENDBRANCH  26  27
BRANCH  26  29
ATOM     29  CB  LYS A  11       6.899  15.294  23.937  0.00  0.00    +0.028 C 
BRANCH  29  30
ATOM     30  CG  LYS A  11       8.163  14.920  23.164  0.00  0.00    -0.000 C 
BRANCH  30  31
ATOM     31  CD  LYS A  11       8.434  15.808  21.948  0.00  0.00    -0.024 C 
BRANCH  31  32
ATOM     32  CE  LYS A  11       9.718  15.393  21.211  0.00  0.00    -0.086 C 
BRANCH  32  33
ATOM     33  NZ  LYS A  11      10.107  16.281  20.070  0.00  0.00    +0.380 N 
ATOM     34  HZ1 LYS A  11      10.263  17.247  20.422  0.00  0.00    -0.089 HD
ATOM     35  HZ2 LYS A  11      10.982  15.923  19.636  0.00  0.00    -0.089 HD
ATOM     36  HZ3 LYS A  11       9.345  16.288  19.362  0.00  0.00    -0.089 HD
ENDBRANCH  32  33
ENDBRANCH  31  32
ENDBRANCH  30  31
ENDBRANCH  29  30
ENDBRANCH  26  29
ENDBRANCH  24  26
ENDBRANCH  21  22
ENDBRANCH  18  21
ENDBRANCH  16  17
BRANCH  16  37
ATOM     37  CB  ILE A   9       7.130  12.045  19.309  0.00  0.00    +0.027 C 
ATOM     38  CG2 ILE A   9       6.724  11.673  17.887  0.00  0.00    +0.002 C 
BRANCH  37  39
ATOM     39  CG1 ILE A   9       6.442  13.345  19.769  0.00  0.00    +0.002 C 
ATOM     40  CD1 ILE A   9       6.626  14.537  18.841  0.00  0.00    +0.000 C 
ENDBRANCH  37  39
ENDBRANCH  16  37
ENDBRANCH  13  16
ENDBRANCH  11  12
BRANCH  11  41
ATOM     41  CB  ARG A   8       2.583   9.021  19.549  0.00  0.00    +0.033 C 
BRANCH  41  42
ATOM     42  CG  ARG A   8       1.088   8.912  19.810  0.00  0.00    +0.045 C 
BRANCH  42  43
ATOM     43  CD  ARG A   8       0.419   7.822  18.999  0.00  0.00    +0.174 C 
BRANCH  43  44
ATOM     44  NE  ARG A   8      -0.913   8.247  18.598  0.00  0.00    -0.265 N 
ATOM     45  HE  ARG A   8      -1.716   7.954  19.191  0.00  0.00    +0.259 HD
ATOM     46  CZ  ARG A   8      -1.171   8.987  17.521  0.00  0.00    +0.342 C 
ATOM     47  NH2 ARG A   8      -2.419   9.340  17.237  0.00  0.00    -0.292 N 
ATOM     48 HH21 ARG A   8      -3.198   9.039  17.856  0.00  0.00    +0.255 HD
ATOM     49 HH22 ARG A   8      -2.617   9.918  16.395  0.00  0.00    +0.255 HD
ATOM     50  NH1 ARG A   8      -0.191   9.379  16.711  0.00  0.00    -0.292 N 
ATOM     51 HH11 ARG A   8       0.792   9.108  16.915  0.00  0.00    +0.255 HD
ATOM     52 HH12 ARG A   8      -0.408   9.957  15.874  0.00  0.00    +0.255 HD
ENDBRANCH  43  44
ENDBRANCH  42  43
ENDBRANCH  41  42
ENDBRANCH  11  41
ENDBRANCH   9  11
ENDBRANCH   6   7
BRANCH   6  53
ATOM     53  CB  ASP A   7       0.854  10.794  23.879  0.00  0.00    +0.143 C 
BRANCH  53  54
ATOM     54  CG  ASP A   7       0.653  10.051  25.167  0.00  0.00    +0.367 C 
ATOM     55  OD2 ASP A   7       0.034  10.634  26.077  0.00  0.00    -0.246 OA
ATOM     56  OD1 ASP A   7       1.115   8.901  25.276  0.00  0.00    -0.246 OA
ENDBRANCH  53  54
ENDBRANCH   6  53
ENDBRANCH   3   6
ENDBRANCH   1   2
BRANCH   1  58
ATOM     57  C   ARG A   5       1.811  13.688  19.719  0.00  0.00    +0.241 C 
ATOM     58  N   LEU A   6       1.729  14.304  20.883  0.00  0.00    -0.297 N 
ATOM     59  H   LEU A   6       0.807  14.668  21.198  0.00  0.00    +0.150 HD
ATOM     60  O   ARG A   5       2.872  13.315  19.251  0.00  0.00    -0.273 OA
BRANCH  57  61
ATOM     61  CA  ARG A   5       0.506  13.495  18.954  0.00  0.00    +0.149 C 
BRANCH  61  64
ATOM     62  C   ASP A   4      -0.932  12.465  20.657  0.00  0.00    +0.241 C 
ATOM     63  O   ASP A   4      -0.117  11.563  20.871  0.00  0.00    -0.273 OA
ATOM     64  N   ARG A   5      -0.701  13.459  19.796  0.00  0.00    -0.297 N 
ATOM     65  H   ARG A   5      -1.394  14.230  19.718  0.00  0.00    +0.150 HD
BRANCH  62  66
ATOM     66  CA  ASP A   4      -2.232  12.535  21.476  0.00  0.00    +0.160 C 
BRANCH  66  69
ATOM     67  C   LEU A   3      -1.509  14.477  22.695  0.00  0.00    +0.241 C 
ATOM     68  O   LEU A   3      -0.459  13.905  23.036  0.00  0.00    -0.273 OA
ATOM     69  N   ASP A   4      -2.434  13.890  21.942  0.00  0.00    -0.297 N 
ATOM     70  H   ASP A   4      -3.302  14.404  21.688  0.00  0.00    +0.150 HD
BRANCH  67  71
ATOM     71  CA  LEU A   3      -1.797  15.910  23.157  0.00  0.00    +0.149 C 
BRANCH  71  73
ATOM     72  C   ALA A   2      -1.552  16.991  21.000  0.00  0.00    +0.241 C 
ATOM     73  N   LEU A   3      -2.307  16.735  22.059  0.00  0.00    -0.297 N 
ATOM     74  H   LEU A   3      -3.270  17.123  22.111  0.00  0.00    +0.150 HD
ATOM     75  O   ALA A   2      -0.368  16.686  20.960  0.00  0.00    -0.273 OA
BRANCH  72  76
ATOM     76  CA  ALA A   2      -2.194  17.701  19.816  0.00  0.00    +0.149 C 
ATOM     77  CB  ALA A   2      -2.192  19.190  20.053  0.00  0.00    +0.031 C 
BRANCH  76  79
ATOM     78  C   VAL A   1      -3.818  15.958  19.256  0.00  0.00    +0.238 C 
ATOM     79  N   ALA A   2      -3.543  17.233  19.544  0.00  0.00    -0.297 N 
ATOM     80  H   ALA A   2      -4.325  17.918  19.575  0.00  0.00    +0.150 HD
ATOM     81  O   VAL A   1      -2.963  15.066  19.178  0.00  0.00    -0.274 OA
BRANCH  78  82
ATOM     82  CA  VAL A   1      -5.280  15.606  19.022  0.00  0.00    +0.145 C 
BRANCH  82  83
ATOM     83  CB  VAL A   1      -5.738  16.028  17.614  0.00  0.00    +0.025 C 
ATOM     84  CG2 VAL A   1      -6.992  15.243  17.232  0.00  0.00    +0.002 C 
ATOM     85  CG1 VAL A   1      -4.627  15.830  16.591  0.00  0.00    +0.002 C 
ENDBRANCH  82  83
BRANCH  82  86
ATOM     86  N   VAL A   1      -6.132  16.192  20.038  0.00  0.00    -0.238 NA
ATOM     87  H   VAL A   1      -6.859  16.879  19.751  0.00  0.00    +0.142 HD
ENDBRANCH  82  86
ENDBRANCH  78  82
ENDBRANCH  76  79
ENDBRANCH  72  76
ENDBRANCH  71  73
BRANCH  71  88
ATOM     88  CB  LEU A   3      -2.782  15.856  24.318  0.00  0.00    +0.029 C 
BRANCH  88  89
ATOM     89  CG  LEU A   3      -3.152  17.195  24.974  0.00  0.00    +0.002 C 
ATOM     90  CD2 LEU A   3      -4.281  16.979  25.987  0.00  0.00    +0.000 C 
ATOM     91  CD1 LEU A   3      -1.940  17.880  25.611  0.00  0.00    +0.000 C 
ENDBRANCH  88  89
ENDBRANCH  71  88
ENDBRANCH  67  71
ENDBRANCH  66  69
BRANCH  66  92
ATOM     92  CB  ASP A   4      -3.435  12.033  20.690  0.00  0.00    +0.143 C 
BRANCH  92  93
ATOM     93  CG  ASP A   4      -3.318  10.574  20.339  0.00  0.00    +0.367 C 
ATOM     94  OD2 ASP A   4      -2.380   9.914  20.843  0.00  0.00    -0.246 OA
ATOM     95  OD1 ASP A   4      -4.162  10.076  19.565  0.00  0.00    -0.246 OA
ENDBRANCH  92  93
ENDBRANCH  66  92
ENDBRANCH  62  66
ENDBRANCH  61  64
BRANCH  61  96
ATOM     96  CB  ARG A   5       0.396  14.602  17.920  0.00  0.00    +0.033 C 
BRANCH  96  97
ATOM     97  CG  ARG A   5      -0.635  14.301  16.855  0.00  0.00    +0.045 C 
BRANCH  97  98
ATOM     98  CD  ARG A   5      -0.816  15.465  15.889  0.00  0.00    +0.174 C 
BRANCH  98  99
ATOM     99  NE  ARG A   5      -1.395  14.994  14.639  0.00  0.00    -0.265 N 
ATOM    100  HE  ARG A   5      -1.602  13.978  14.562  0.00  0.00    +0.259 HD
ATOM    101  CZ  ARG A   5      -1.679  15.753  13.594  0.00  0.00    +0.342 C 
ATOM    102  NH2 ARG A   5      -1.440  17.067  13.613  0.00  0.00    -0.292 N 
ATOM    103 HH21 ARG A   5      -1.024  17.508  14.458  0.00  0.00    +0.255 HD
ATOM    104 HH22 ARG A   5      -1.669  17.649  12.782  0.00  0.00    +0.255 HD
ATOM    105  NH1 ARG A   5      -2.191  15.186  12.519  0.00  0.00    -0.292 N 
ATOM    106 HH11 ARG A   5      -2.364  14.161  12.504  0.00  0.00    +0.255 HD
ATOM    107 HH12 ARG A   5      -2.422  15.764  11.686  0.00  0.00    +0.255 HD
ENDBRANCH  98  99
ENDBRANCH  97  98
ENDBRANCH  96  97
ENDBRANCH  61  96
ENDBRANCH  57  61
ENDBRANCH   1  58
BRANCH   1 108
ATOM    108  CB  LEU A   6       2.605  15.606  22.735  0.00  0.00    +0.029 C 
BRANCH 108 109
ATOM    109  CG  LEU A   6       2.668  16.975  22.071  0.00  0.00    +0.002 C 
ATOM    110  CD2 LEU A   6       2.290  18.082  23.036  0.00  0.00    +0.000 C 
ATOM    111  CD1 LEU A   6       4.069  17.201  21.501  0.00  0.00    +0.000 C 
ENDBRANCH 108 109
ENDBRANCH   1 108
TORSDOF 46
REMARK  Name = ../refined-set-2016/4nvp/4nvp_pocket.pdb
REMARK  218 active torsions:
REMARK  status: ('A' for Active; 'I' for Inactive)
REMARK    1  A    between atoms: _1  and  _3
REMARK    2  A    between atoms: _3  and  _4
REMARK    3  A    between atoms: _3  and  _6
REMARK    4  A    between atoms: _6  and  _7
REMARK    5  A    between atoms: _10  and  _12
REMARK    6  A    between atoms: _12  and  _13
REMARK    7  A    between atoms: _12  and  _15
REMARK    8  A    between atoms: _15  and  _16
REMARK    9  A    between atoms: _16  and  _17
REMARK   10  A    between atoms: _17  and  _18
REMARK   11  A    between atoms: _27  and  _29
REMARK   12  A    between atoms: _29  and  _30
REMARK   13  A    between atoms: _29  and  _32
REMARK   14  A    between atoms: _32  and  _33
REMARK   15  A    between atoms: _33  and  _34
REMARK   16  A    between atoms: _37  and  _39
REMARK   17  A    between atoms: _39  and  _40
REMARK   18  A    between atoms: _42  and  _44
REMARK   19  A    between atoms: _44  and  _45
REMARK   20  A    between atoms: _44  and  _47
REMARK   21  A    between atoms: _47  and  _48
REMARK   22  A    between atoms: _51  and  _53
REMARK   23  A    between atoms: _53  and  _54
REMARK   24  A    between atoms: _53  and  _56
REMARK   25  A    between atoms: _56  and  _57
REMARK   26  A    between atoms: _60  and  _62
REMARK   27  A    between atoms: _62  and  _63
REMARK   28  A    between atoms: _65  and  _67
REMARK   29  A    between atoms: _67  and  _68
REMARK   30  A    between atoms: _67  and  _70
REMARK   31  A    between atoms: _70  and  _71
REMARK   32  A    between atoms: _71  and  _72
REMARK   33  A    between atoms: _72  and  _73
REMARK   34  A    between atoms: _73  and  _74
REMARK   35  A    between atoms: _78  and  _80
REMARK   36  A    between atoms: _80  and  _81
REMARK   37  A    between atoms: _80  and  _83
REMARK   38  A    between atoms: _83  and  _84
REMARK   39  A    between atoms: _84  and  _85
REMARK   40  A    between atoms: _85  and  _86
REMARK   41  A    between atoms: _86  and  _87
REMARK   42  A    between atoms: _91  and  _93
REMARK   43  A    between atoms: _93  and  _94
REMARK   44  A    between atoms: _93  and  _96
REMARK   45  A    between atoms: _96  and  _97
REMARK   46  A    between atoms: _97  and  _98
REMARK   47  A    between atoms: _100  and  _102
REMARK   48  A    between atoms: _102  and  _103
REMARK   49  A    between atoms: _102  and  _105
REMARK   50  A    between atoms: _105  and  _106
REMARK   51  A    between atoms: _111  and  _112
REMARK   52  A    between atoms: _114  and  _116
REMARK   53  A    between atoms: _116  and  _117
REMARK   54  A    between atoms: _116  and  _119
REMARK   55  A    between atoms: _122  and  _124
REMARK   56  A    between atoms: _124  and  _125
REMARK   57  A    between atoms: _124  and  _127
REMARK   58  A    between atoms: _127  and  _128
REMARK   59  A    between atoms: _130  and  _132
REMARK   60  A    between atoms: _132  and  _133
REMARK   61  A    between atoms: _132  and  _135
REMARK   62  A    between atoms: _138  and  _140
REMARK   63  A    between atoms: _140  and  _141
REMARK   64  A    between atoms: _140  and  _143
REMARK   65  A    between atoms: _143  and  _144
REMARK   66  A    between atoms: _147  and  _149
REMARK   67  A    between atoms: _149  and  _150
REMARK   68  A    between atoms: _149  and  _152
REMARK   69  A    between atoms: _152  and  _153
REMARK   70  A    between atoms: _156  and  _158
REMARK   71  A    between atoms: _158  and  _159
REMARK   72  A    between atoms: _158  and  _161
REMARK   73  A    between atoms: _161  and  _162
REMARK   74  A    between atoms: _167  and  _169
REMARK   75  A    between atoms: _169  and  _170
REMARK   76  A    between atoms: _169  and  _172
REMARK   77  A    between atoms: _172  and  _173
REMARK   78  A    between atoms: _173  and  _174
REMARK   79  A    between atoms: _174  and  _175
REMARK   80  A    between atoms: _175  and  _176
REMARK   81  A    between atoms: _180  and  _182
REMARK   82  A    between atoms: _182  and  _183
REMARK   83  A    between atoms: _182  and  _185
REMARK   84  A    between atoms: _185  and  _186
REMARK   85  A    between atoms: _186  and  _187
REMARK   86  A    between atoms: _190  and  _192
REMARK   87  A    between atoms: _192  and  _193
REMARK   88  A    between atoms: _192  and  _195
REMARK   89  A    between atoms: _195  and  _196
REMARK   90  A    between atoms: _199  and  _201
REMARK   91  A    between atoms: _201  and  _202
REMARK   92  A    between atoms: _201  and  _204
REMARK   93  A    between atoms: _204  and  _205
REMARK   94  A    between atoms: _205  and  _206
REMARK   95  A    between atoms: _206  and  _207
REMARK   96  A    between atoms: _207  and  _208
REMARK   97  A    between atoms: _212  and  _214
REMARK   98  A    between atoms: _214  and  _215
REMARK   99  A    between atoms: _214  and  _217
REMARK  100  A    between atoms: _217  and  _218
REMARK  101  A    between atoms: _221  and  _223
REMARK  102  A    between atoms: _223  and  _224
REMARK  103  A    between atoms: _223  and  _226
REMARK  104  A    between atoms: _226  and  _227
REMARK  105  A    between atoms: _229  and  _231
REMARK  106  A    between atoms: _231  and  _232
REMARK  107  A    between atoms: _231  and  _234
REMARK  108  A    between atoms: _234  and  _235
REMARK  109  A    between atoms: _240  and  _241
REMARK  110  A    between atoms: _243  and  _245
REMARK  111  A    between atoms: _245  and  _246
REMARK  112  A    between atoms: _245  and  _248
REMARK  113  A    between atoms: _248  and  _249
REMARK  114  A    between atoms: _255  and  _257
REMARK  115  A    between atoms: _257  and  _258
REMARK  116  A    between atoms: _260  and  _262
REMARK  117  A    between atoms: _262  and  _263
REMARK  118  A    between atoms: _262  and  _265
REMARK  119  A    between atoms: _265  and  _266
REMARK  120  A    between atoms: _266  and  _267
REMARK  121  A    between atoms: _270  and  _272
REMARK  122  A    between atoms: _272  and  _273
REMARK  123  A    between atoms: _272  and  _275
REMARK  124  A    between atoms: _275  and  _276
REMARK  125  A    between atoms: _279  and  _281
REMARK  126  A    between atoms: _281  and  _282
REMARK  127  A    between atoms: _281  and  _284
REMARK  128  A    between atoms: _286  and  _288
REMARK  129  A    between atoms: _288  and  _289
REMARK  130  A    between atoms: _288  and  _291
REMARK  131  A    between atoms: _291  and  _292
REMARK  132  A    between atoms: _295  and  _297
REMARK  133  A    between atoms: _297  and  _298
REMARK  134  A    between atoms: _297  and  _300
REMARK  135  A    between atoms: _300  and  _301
REMARK  136  A    between atoms: _304  and  _306
REMARK  137  A    between atoms: _306  and  _307
REMARK  138  A    between atoms: _306  and  _309
REMARK  139  A    between atoms: _309  and  _310
REMARK  140  A    between atoms: _313  and  _315
REMARK  141  A    between atoms: _315  and  _316
REMARK  142  A    between atoms: _315  and  _318
REMARK  143  A    between atoms: _318  and  _319
REMARK  144  A    between atoms: _319  and  _320
REMARK  145  A    between atoms: _320  and  _321
REMARK  146  A    between atoms: _330  and  _332
REMARK  147  A    between atoms: _332  and  _333
REMARK  148  A    between atoms: _335  and  _337
REMARK  149  A    between atoms: _337  and  _338
REMARK  150  A    between atoms: _337  and  _340
REMARK  151  A    between atoms: _340  and  _341
REMARK  152  A    between atoms: _341  and  _342
REMARK  153  A    between atoms: _342  and  _343
REMARK  154  A    between atoms: _352  and  _354
REMARK  155  A    between atoms: _354  and  _355
REMARK  156  A    between atoms: _354  and  _357
REMARK  157  A    between atoms: _357  and  _358
REMARK  158  A    between atoms: _358  and  _359
REMARK  159  A    between atoms: _359  and  _360
REMARK  160  A    between atoms: _369  and  _371
REMARK  161  A    between atoms: _371  and  _372
REMARK  162  A    between atoms: _371  and  _374
REMARK  163  A    between atoms: _374  and  _375
REMARK  164  A    between atoms: _378  and  _380
REMARK  165  A    between atoms: _380  and  _381
REMARK  166  A    between atoms: _384  and  _386
REMARK  167  A    between atoms: _386  and  _387
REMARK  168  A    between atoms: _386  and  _389
REMARK  169  A    between atoms: _389  and  _390
REMARK  170  A    between atoms: _392  and  _394
REMARK  171  A    between atoms: _394  and  _395
REMARK  172  A    between atoms: _394  and  _397
REMARK  173  A    between atoms: _400  and  _402
REMARK  174  A    between atoms: _402  and  _403
REMARK  175  A    between atoms: _402  and  _405
REMARK  176  A    between atoms: _408  and  _410
REMARK  177  A    between atoms: _410  and  _411
REMARK  178  A    between atoms: _414  and  _416
REMARK  179  A    between atoms: _416  and  _417
REMARK  180  A    between atoms: _416  and  _419
REMARK  181  A    between atoms: _419  and  _420
REMARK  182  A    between atoms: _423  and  _425
REMARK  183  A    between atoms: _425  and  _426
REMARK  184  A    between atoms: _425  and  _428
REMARK  185  A    between atoms: _428  and  _429
REMARK  186  A    between atoms: _432  and  _434
REMARK  187  A    between atoms: _434  and  _435
REMARK  188  A    between atoms: _434  and  _437
REMARK  189  A    between atoms: _437  and  _438
REMARK  190  A    between atoms: _438  and  _439
REMARK  191  A    between atoms: _439  and  _440
REMARK  192  A    between atoms: _449  and  _451
REMARK  193  A    between atoms: _451  and  _452
REMARK  194  A    between atoms: _451  and  _454
REMARK  195  A    between atoms: _454  and  _455
REMARK  196  A    between atoms: _458  and  _460
REMARK  197  A    between atoms: _460  and  _461
REMARK  198  A    between atoms: _460  and  _463
REMARK  199  A    between atoms: _463  and  _464
REMARK  200  A    between atoms: _467  and  _469
REMARK  201  A    between atoms: _469  and  _470
REMARK  202  A    between atoms: _469  and  _472
REMARK  203  A    between atoms: _472  and  _473
REMARK  204  A    between atoms: _473  and  _474
REMARK  205  A    between atoms: _474  and  _475
REMARK  206  A    between atoms: _484  and  _486
REMARK  207  A    between atoms: _486  and  _487
REMARK  208  A    between atoms: _486  and  _489
REMARK  209  A    between atoms: _489  and  _490
REMARK  210  A    between atoms: _493  and  _495
REMARK  211  A    between atoms: _495  and  _496
REMARK  212  A    between atoms: _498  and  _500
REMARK  213  A    between atoms: _500  and  _501
REMARK  214  A    between atoms: _500  and  _503
REMARK  215  A    between atoms: _503  and  _504
REMARK  216  A    between atoms: _504  and  _505
REMARK  217  A    between atoms: _505  and  _506
REMARK  218  A    between atoms: _506  and  _507
REMARK                            x       y       z     vdW  Elec       q    Type
REMARK                         _______ _______ _______ _____ _____    ______ ____
ROOT
ATOM      1  O   HOH     1      -5.152  15.292  11.590  0.00  0.00    +0.000 OA
ENDROOT
TORSDOF 0
