REMARK  Name = ../refined-set-2016/2yz3/2yz3_pocket.pdb
REMARK  135 active torsions:
REMARK  status: ('A' for Active; 'I' for Inactive)
REMARK    1  A    between atoms: _1  and  _3
REMARK    2  A    between atoms: _3  and  _4
REMARK    3  A    between atoms: _3  and  _6
REMARK    4  A    between atoms: _6  and  _7
REMARK    5  A    between atoms: _7  and  _8
REMARK    6  A    between atoms: _13  and  _15
REMARK    7  A    between atoms: _15  and  _16
REMARK    8  A    between atoms: _15  and  _18
REMARK    9  A    between atoms: _18  and  _19
REMARK   10  A    between atoms: _21  and  _23
REMARK   11  A    between atoms: _23  and  _24
REMARK   12  A    between atoms: _23  and  _26
REMARK   13  A    between atoms: _26  and  _27
REMARK   14  A    between atoms: _33  and  _35
REMARK   15  A    between atoms: _35  and  _36
REMARK   16  A    between atoms: _35  and  _38
REMARK   17  A    between atoms: _38  and  _39
REMARK   18  A    between atoms: _42  and  _44
REMARK   19  A    between atoms: _44  and  _45
REMARK   20  A    between atoms: _48  and  _50
REMARK   21  A    between atoms: _50  and  _51
REMARK   22  A    between atoms: _50  and  _53
REMARK   23  A    between atoms: _56  and  _58
REMARK   24  A    between atoms: _58  and  _59
REMARK   25  A    between atoms: _58  and  _61
REMARK   26  A    between atoms: _61  and  _62
REMARK   27  A    between atoms: _67  and  _68
REMARK   28  A    between atoms: _71  and  _72
REMARK   29  A    between atoms: _77  and  _79
REMARK   30  A    between atoms: _79  and  _80
REMARK   31  A    between atoms: _79  and  _82
REMARK   32  A    between atoms: _82  and  _83
REMARK   33  A    between atoms: _85  and  _87
REMARK   34  A    between atoms: _87  and  _88
REMARK   35  A    between atoms: _87  and  _90
REMARK   36  A    between atoms: _90  and  _91
REMARK   37  A    between atoms: _96  and  _98
REMARK   38  A    between atoms: _98  and  _99
REMARK   39  A    between atoms: _98  and  _101
REMARK   40  A    between atoms: _101  and  _102
REMARK   41  A    between atoms: _112  and  _114
REMARK   42  A    between atoms: _125  and  _128
REMARK   43  A    between atoms: _128  and  _129
REMARK   44  A    between atoms: _137  and  _138
REMARK   45  A    between atoms: _146  and  _148
REMARK   46  A    between atoms: _148  and  _149
REMARK   47  A    between atoms: _148  and  _151
REMARK   48  A    between atoms: _151  and  _152
REMARK   49  A    between atoms: _155  and  _157
REMARK   50  A    between atoms: _157  and  _158
REMARK   51  A    between atoms: _157  and  _160
REMARK   52  A    between atoms: _160  and  _161
REMARK   53  A    between atoms: _161  and  _162
REMARK   54  A    between atoms: _162  and  ZN_361
REMARK   55  A    between atoms: _164  and  _166
REMARK   56  A    between atoms: _166  and  _167
REMARK   57  A    between atoms: _166  and  _169
REMARK   58  A    between atoms: _169  and  _170
REMARK   59  A    between atoms: _170  and  _171
REMARK   60  A    between atoms: _171  and  _172
REMARK   61  A    between atoms: _181  and  _183
REMARK   62  A    between atoms: _183  and  _184
REMARK   63  A    between atoms: _183  and  _186
REMARK   64  A    between atoms: _186  and  _187
REMARK   65  A    between atoms: _187  and  _188
REMARK   66  A    between atoms: _191  and  _193
REMARK   67  A    between atoms: _193  and  _194
REMARK   68  A    between atoms: _193  and  _196
REMARK   69  A    between atoms: _196  and  _197
REMARK   70  A    between atoms: _202  and  _204
REMARK   71  A    between atoms: _204  and  _205
REMARK   72  A    between atoms: _204  and  _207
REMARK   73  A    between atoms: _207  and  _208
REMARK   74  A    between atoms: _212  and  ZN_360
REMARK   75  A    between atoms: _213  and  _215
REMARK   76  A    between atoms: _215  and  _216
REMARK   77  A    between atoms: _215  and  _218
REMARK   78  A    between atoms: _218  and  _219
REMARK   79  A    between atoms: _221  and  _223
REMARK   80  A    between atoms: _223  and  _224
REMARK   81  A    between atoms: _226  and  _228
REMARK   82  A    between atoms: _228  and  _229
REMARK   83  A    between atoms: _228  and  _231
REMARK   84  A    between atoms: _231  and  _232
REMARK   85  A    between atoms: _232  and  ZN_361
REMARK   86  A    between atoms: _233  and  _235
REMARK   87  A    between atoms: _235  and  _236
REMARK   88  A    between atoms: _239  and  _241
REMARK   89  A    between atoms: _241  and  _242
REMARK   90  A    between atoms: _241  and  _244
REMARK   91  A    between atoms: _244  and  _245
REMARK   92  A    between atoms: _250  and  _251
REMARK   93  A    between atoms: _253  and  _255
REMARK   94  A    between atoms: _255  and  _256
REMARK   95  A    between atoms: _255  and  _258
REMARK   96  A    between atoms: _258  and  _259
REMARK   97  A    between atoms: _259  and  _260
REMARK   98  A    between atoms: _263  and  _265
REMARK   99  A    between atoms: _265  and  _266
REMARK  100  A    between atoms: _265  and  _268
REMARK  101  A    between atoms: _268  and  _269
REMARK  102  A    between atoms: _269  and  _270
REMARK  103  A    between atoms: _270  and  _271
REMARK  104  A    between atoms: _280  and  _282
REMARK  105  A    between atoms: _282  and  _283
REMARK  106  A    between atoms: _282  and  _285
REMARK  107  A    between atoms: _285  and  _286
REMARK  108  A    between atoms: _288  and  _290
REMARK  109  A    between atoms: _290  and  _291
REMARK  110  A    between atoms: _294  and  _296
REMARK  111  A    between atoms: _296  and  _297
REMARK  112  A    between atoms: _299  and  _301
REMARK  113  A    between atoms: _301  and  _302
REMARK  114  A    between atoms: _301  and  _304
REMARK  115  A    between atoms: _304  and  _305
REMARK  116  A    between atoms: _310  and  _312
REMARK  117  A    between atoms: _312  and  _313
REMARK  118  A    between atoms: _312  and  _315
REMARK  119  A    between atoms: _318  and  _320
REMARK  120  A    between atoms: _320  and  _321
REMARK  121  A    between atoms: _324  and  _326
REMARK  122  A    between atoms: _326  and  _327
REMARK  123  A    between atoms: _326  and  _329
REMARK  124  A    between atoms: _329  and  _330
REMARK  125  A    between atoms: _333  and  _335
REMARK  126  A    between atoms: _335  and  _336
REMARK  127  A    between atoms: _339  and  _341
REMARK  128  A    between atoms: _341  and  _342
REMARK  129  A    between atoms: _344  and  _346
REMARK  130  A    between atoms: _346  and  _347
REMARK  131  A    between atoms: _346  and  _349
REMARK  132  A    between atoms: _349  and  _350
REMARK  133  A    between atoms: _354  and  ZN_361
REMARK  134  A    between atoms: _355  and  _357
REMARK  135  A    between atoms: _357  and  _358
REMARK                            x       y       z     vdW  Elec       q    Type
REMARK                         _______ _______ _______ _____ _____    ______ ____
ROOT
ATOM      1  C   SER A   2      28.570   6.155 113.875  0.00  0.00    +0.243 C 
ATOM      2  O   SER A   2      28.247   7.330 114.057  0.00  0.00    -0.273 OA
ATOM      3  N   PHE A   3      28.652   5.589 112.677  0.00  0.00    -0.297 N 
ATOM      4  H   PHE A   3      28.936   4.590 112.624  0.00  0.00    +0.150 HD
ENDROOT
BRANCH   1   5
ATOM      5  CA  SER A   2      28.916   5.254 115.048  0.00  0.00    +0.178 C 
BRANCH   5   7
ATOM      6  C   GLN A   1      30.913   6.196 116.033  0.00  0.00    +0.238 C 
ATOM      7  N   SER A   2      29.596   6.027 116.075  0.00  0.00    -0.295 N 
ATOM      8  H   SER A   2      29.046   6.451 116.849  0.00  0.00    +0.150 HD
ATOM      9  O   GLN A   1      31.624   5.705 115.156  0.00  0.00    -0.274 OA
BRANCH   6  10
ATOM     10  CA  GLN A   1      31.525   7.031 117.142  0.00  0.00    +0.145 C 
BRANCH  10  11
ATOM     11  N   GLN A   1      32.893   6.616 117.392  0.00  0.00    -0.238 NA
ATOM     12  H   GLN A   1      33.409   6.087 116.660  0.00  0.00    +0.142 HD
ENDBRANCH  10  11
BRANCH  10  13
ATOM     13  CB  GLN A   1      31.502   8.511 116.740  0.00  0.00    +0.036 C 
BRANCH  13  14
ATOM     14  CG  GLN A   1      30.111   9.081 116.644  0.00  0.00    +0.087 C 
BRANCH  14  15
ATOM     15  CD  GLN A   1      29.388   8.980 117.961  0.00  0.00    +0.219 C 
ATOM     16  OE1 GLN A   1      29.586   9.808 118.858  0.00  0.00    -0.275 OA
ATOM     17  NE2 GLN A   1      28.564   7.953 118.104  0.00  0.00    -0.329 N 
ATOM     18 HE21 GLN A   1      28.052   7.818 118.999  0.00  0.00    +0.145 HD
ATOM     19 HE22 GLN A   1      28.429   7.282 117.321  0.00  0.00    +0.145 HD
ENDBRANCH  14  15
ENDBRANCH  13  14
ENDBRANCH  10  13
ENDBRANCH   6  10
ENDBRANCH   5   7
BRANCH   5  20
ATOM     20  CB  SER A   2      27.645   4.621 115.608  0.00  0.00    +0.166 C 
BRANCH  20  21
ATOM     21  OG  SER A   2      26.799   5.611 116.161  0.00  0.00    -0.380 OA
ATOM     22  H   SER A   2      26.551   6.262 115.458  0.00  0.00    +0.211 HD
ENDBRANCH  20  21
ENDBRANCH   5  20
ENDBRANCH   1   5
BRANCH   3  23
ATOM     23  CA  PHE A   3      28.366   6.290 111.435  0.00  0.00    +0.153 C 
BRANCH  23  24
ATOM     24  C   PHE A   3      27.736   5.299 110.462  0.00  0.00    +0.241 C 
ATOM     25  N   ASP A   4      26.417   5.392 110.334  0.00  0.00    -0.298 N 
ATOM     26  H   ASP A   4      25.919   6.116 110.890  0.00  0.00    +0.150 HD
ATOM     27  O   PHE A   3      28.422   4.472 109.864  0.00  0.00    -0.273 OA
BRANCH  25  28
ATOM     28  CA  ASP A   4      25.629   4.534 109.457  0.00  0.00    +0.148 C 
BRANCH  28  29
ATOM     29  C   ASP A   4      25.752   3.049 109.795  0.00  0.00    +0.227 C 
ATOM     30  O   ASP A   4      26.045   2.224 108.928  0.00  0.00    -0.286 OA
ENDBRANCH  28  29
BRANCH  28  31
ATOM     31  CB  ASP A   4      26.004   4.772 107.987  0.00  0.00    +0.142 C 
BRANCH  31  32
ATOM     32  CG  ASP A   4      25.015   4.128 107.024  0.00  0.00    +0.367 C 
ATOM     33  OD2 ASP A   4      23.880   3.812 107.453  0.00  0.00    -0.246 OA
ATOM     34  OD1 ASP A   4      25.363   3.947 105.839  0.00  0.00    -0.246 OA
ENDBRANCH  31  32
ENDBRANCH  28  31
ENDBRANCH  25  28
ENDBRANCH  23  24
BRANCH  23  35
ATOM     35  CB  PHE A   3      29.668   6.855 110.854  0.00  0.00    +0.055 C 
BRANCH  35  36
ATOM     36  CG  PHE A   3      29.500   7.575 109.540  0.00  0.00    -0.020 A 
ATOM     37  CD2 PHE A   3      29.215   8.936 109.513  0.00  0.00    -0.004 A 
ATOM     38  CE2 PHE A   3      29.101   9.620 108.305  0.00  0.00    -0.000 A 
ATOM     39  CZ  PHE A   3      29.274   8.936 107.099  0.00  0.00    -0.000 A 
ATOM     40  CE1 PHE A   3      29.555   7.571 107.113  0.00  0.00    -0.000 A 
ATOM     41  CD1 PHE A   3      29.665   6.898 108.330  0.00  0.00    -0.004 A 
ENDBRANCH  35  36
ENDBRANCH  23  35
ENDBRANCH   3  23
TORSDOF 17
REMARK  Name = ../refined-set-2016/2yz3/2yz3_pocket.pdb
REMARK  135 active torsions:
REMARK  status: ('A' for Active; 'I' for Inactive)
REMARK    1  A    between atoms: _1  and  _3
REMARK    2  A    between atoms: _3  and  _4
REMARK    3  A    between atoms: _3  and  _6
REMARK    4  A    between atoms: _6  and  _7
REMARK    5  A    between atoms: _7  and  _8
REMARK    6  A    between atoms: _13  and  _15
REMARK    7  A    between atoms: _15  and  _16
REMARK    8  A    between atoms: _15  and  _18
REMARK    9  A    between atoms: _18  and  _19
REMARK   10  A    between atoms: _21  and  _23
REMARK   11  A    between atoms: _23  and  _24
REMARK   12  A    between atoms: _23  and  _26
REMARK   13  A    between atoms: _26  and  _27
REMARK   14  A    between atoms: _33  and  _35
REMARK   15  A    between atoms: _35  and  _36
REMARK   16  A    between atoms: _35  and  _38
REMARK   17  A    between atoms: _38  and  _39
REMARK   18  A    between atoms: _42  and  _44
REMARK   19  A    between atoms: _44  and  _45
REMARK   20  A    between atoms: _48  and  _50
REMARK   21  A    between atoms: _50  and  _51
REMARK   22  A    between atoms: _50  and  _53
REMARK   23  A    between atoms: _56  and  _58
REMARK   24  A    between atoms: _58  and  _59
REMARK   25  A    between atoms: _58  and  _61
REMARK   26  A    between atoms: _61  and  _62
REMARK   27  A    between atoms: _67  and  _68
REMARK   28  A    between atoms: _71  and  _72
REMARK   29  A    between atoms: _77  and  _79
REMARK   30  A    between atoms: _79  and  _80
REMARK   31  A    between atoms: _79  and  _82
REMARK   32  A    between atoms: _82  and  _83
REMARK   33  A    between atoms: _85  and  _87
REMARK   34  A    between atoms: _87  and  _88
REMARK   35  A    between atoms: _87  and  _90
REMARK   36  A    between atoms: _90  and  _91
REMARK   37  A    between atoms: _96  and  _98
REMARK   38  A    between atoms: _98  and  _99
REMARK   39  A    between atoms: _98  and  _101
REMARK   40  A    between atoms: _101  and  _102
REMARK   41  A    between atoms: _112  and  _114
REMARK   42  A    between atoms: _125  and  _128
REMARK   43  A    between atoms: _128  and  _129
REMARK   44  A    between atoms: _137  and  _138
REMARK   45  A    between atoms: _146  and  _148
REMARK   46  A    between atoms: _148  and  _149
REMARK   47  A    between atoms: _148  and  _151
REMARK   48  A    between atoms: _151  and  _152
REMARK   49  A    between atoms: _155  and  _157
REMARK   50  A    between atoms: _157  and  _158
REMARK   51  A    between atoms: _157  and  _160
REMARK   52  A    between atoms: _160  and  _161
REMARK   53  A    between atoms: _161  and  _162
REMARK   54  A    between atoms: _162  and  ZN_361
REMARK   55  A    between atoms: _164  and  _166
REMARK   56  A    between atoms: _166  and  _167
REMARK   57  A    between atoms: _166  and  _169
REMARK   58  A    between atoms: _169  and  _170
REMARK   59  A    between atoms: _170  and  _171
REMARK   60  A    between atoms: _171  and  _172
REMARK   61  A    between atoms: _181  and  _183
REMARK   62  A    between atoms: _183  and  _184
REMARK   63  A    between atoms: _183  and  _186
REMARK   64  A    between atoms: _186  and  _187
REMARK   65  A    between atoms: _187  and  _188
REMARK   66  A    between atoms: _191  and  _193
REMARK   67  A    between atoms: _193  and  _194
REMARK   68  A    between atoms: _193  and  _196
REMARK   69  A    between atoms: _196  and  _197
REMARK   70  A    between atoms: _202  and  _204
REMARK   71  A    between atoms: _204  and  _205
REMARK   72  A    between atoms: _204  and  _207
REMARK   73  A    between atoms: _207  and  _208
REMARK   74  A    between atoms: _212  and  ZN_360
REMARK   75  A    between atoms: _213  and  _215
REMARK   76  A    between atoms: _215  and  _216
REMARK   77  A    between atoms: _215  and  _218
REMARK   78  A    between atoms: _218  and  _219
REMARK   79  A    between atoms: _221  and  _223
REMARK   80  A    between atoms: _223  and  _224
REMARK   81  A    between atoms: _226  and  _228
REMARK   82  A    between atoms: _228  and  _229
REMARK   83  A    between atoms: _228  and  _231
REMARK   84  A    between atoms: _231  and  _232
REMARK   85  A    between atoms: _232  and  ZN_361
REMARK   86  A    between atoms: _233  and  _235
REMARK   87  A    between atoms: _235  and  _236
REMARK   88  A    between atoms: _239  and  _241
REMARK   89  A    between atoms: _241  and  _242
REMARK   90  A    between atoms: _241  and  _244
REMARK   91  A    between atoms: _244  and  _245
REMARK   92  A    between atoms: _250  and  _251
REMARK   93  A    between atoms: _253  and  _255
REMARK   94  A    between atoms: _255  and  _256
REMARK   95  A    between atoms: _255  and  _258
REMARK   96  A    between atoms: _258  and  _259
REMARK   97  A    between atoms: _259  and  _260
REMARK   98  A    between atoms: _263  and  _265
REMARK   99  A    between atoms: _265  and  _266
REMARK  100  A    between atoms: _265  and  _268
REMARK  101  A    between atoms: _268  and  _269
REMARK  102  A    between atoms: _269  and  _270
REMARK  103  A    between atoms: _270  and  _271
REMARK  104  A    between atoms: _280  and  _282
REMARK  105  A    between atoms: _282  and  _283
REMARK  106  A    between atoms: _282  and  _285
REMARK  107  A    between atoms: _285  and  _286
REMARK  108  A    between atoms: _288  and  _290
REMARK  109  A    between atoms: _290  and  _291
REMARK  110  A    between atoms: _294  and  _296
REMARK  111  A    between atoms: _296  and  _297
REMARK  112  A    between atoms: _299  and  _301
REMARK  113  A    between atoms: _301  and  _302
REMARK  114  A    between atoms: _301  and  _304
REMARK  115  A    between atoms: _304  and  _305
REMARK  116  A    between atoms: _310  and  _312
REMARK  117  A    between atoms: _312  and  _313
REMARK  118  A    between atoms: _312  and  _315
REMARK  119  A    between atoms: _318  and  _320
REMARK  120  A    between atoms: _320  and  _321
REMARK  121  A    between atoms: _324  and  _326
REMARK  122  A    between atoms: _326  and  _327
REMARK  123  A    between atoms: _326  and  _329
REMARK  124  A    between atoms: _329  and  _330
REMARK  125  A    between atoms: _333  and  _335
REMARK  126  A    between atoms: _335  and  _336
REMARK  127  A    between atoms: _339  and  _341
REMARK  128  A    between atoms: _341  and  _342
REMARK  129  A    between atoms: _344  and  _346
REMARK  130  A    between atoms: _346  and  _347
REMARK  131  A    between atoms: _346  and  _349
REMARK  132  A    between atoms: _349  and  _350
REMARK  133  A    between atoms: _354  and  ZN_361
REMARK  134  A    between atoms: _355  and  _357
REMARK  135  A    between atoms: _357  and  _358
REMARK                            x       y       z     vdW  Elec       q    Type
REMARK                         _______ _______ _______ _____ _____    ______ ____
ROOT
ATOM      1  C   TYR A   3      35.715   4.974 114.719  0.00  0.00    +0.244 C 
ATOM      2  O   TYR A   3      35.175   5.735 115.511  0.00  0.00    -0.273 OA
ATOM      3  N   PRO A   4      37.042   4.840 114.654  0.00  0.00    -0.272 N 
ATOM      4  CA  PRO A   4      37.903   5.624 115.538  0.00  0.00    +0.152 C 
ATOM      5  CB  PRO A   4      39.183   4.804 115.589  0.00  0.00    +0.031 C 
ATOM      6  CG  PRO A   4      39.267   4.259 114.187  0.00  0.00    +0.024 C 
ATOM      7  CD  PRO A   4      37.827   3.876 113.853  0.00  0.00    +0.094 C 
ENDROOT
BRANCH   4   8
ATOM      8  C   PRO A   4      38.112   6.978 114.851  0.00  0.00    +0.241 C 
ATOM      9  N   SER A   5      38.480   7.997 115.618  0.00  0.00    -0.295 N 
ATOM     10  H   SER A   5      38.610   7.851 116.639  0.00  0.00    +0.150 HD
ATOM     11  O   PRO A   4      37.927   7.094 113.643  0.00  0.00    -0.273 OA
BRANCH   9  12
ATOM     12  CA  SER A   5      38.703   9.315 115.046  0.00  0.00    +0.178 C 
BRANCH  12  13
ATOM     13  C   SER A   5      39.767  10.049 115.859  0.00  0.00    +0.243 C 
ATOM     14  O   SER A   5      39.782   9.977 117.093  0.00  0.00    -0.273 OA
ATOM     15  N   ASN A   6      40.651  10.751 115.152  0.00  0.00    -0.298 N 
ATOM     16  H   ASN A   6      40.552  10.779 114.117  0.00  0.00    +0.150 HD
BRANCH  15  17
ATOM     17  CA  ASN A   6      41.751  11.481 115.768  0.00  0.00    +0.146 C 
BRANCH  17  18
ATOM     18  C   ASN A   6      41.620  12.994 115.752  0.00  0.00    +0.227 C 
ATOM     19  O   ASN A   6      40.999  13.579 114.863  0.00  0.00    -0.286 OA
ENDBRANCH  17  18
BRANCH  17  20
ATOM     20  CB  ASN A   6      43.076  11.136 115.081  0.00  0.00    +0.112 C 
BRANCH  20  21
ATOM     21  CG  ASN A   6      43.370   9.651 115.072  0.00  0.00    +0.222 C 
ATOM     22  ND2 ASN A   6      43.178   8.992 116.210  0.00  0.00    -0.329 N 
ATOM     23 HD21 ASN A   6      42.835   9.497 117.052  0.00  0.00    +0.145 HD
ATOM     24 HD22 ASN A   6      43.371   7.971 116.259  0.00  0.00    +0.145 HD
ATOM     25  OD1 ASN A   6      43.773   9.105 114.049  0.00  0.00    -0.275 OA
ENDBRANCH  20  21
ENDBRANCH  17  20
ENDBRANCH  15  17
ENDBRANCH  12  13
BRANCH  12  26
ATOM     26  CB  SER A   5      37.396  10.111 115.027  0.00  0.00    +0.166 C 
BRANCH  26  27
ATOM     27  OG  SER A   5      37.541  11.288 114.250  0.00  0.00    -0.380 OA
ATOM     28  H   SER A   5      38.256  11.852 114.638  0.00  0.00    +0.211 HD
ENDBRANCH  26  27
ENDBRANCH  12  26
ENDBRANCH   9  12
ENDBRANCH   4   8
BRANCH   1  29
ATOM     29  CA  TYR A   3      34.891   4.141 113.761  0.00  0.00    +0.153 C 
BRANCH  29  31
ATOM     30  C   VAL A   2      33.127   2.582 114.386  0.00  0.00    +0.241 C 
ATOM     31  N   TYR A   3      33.569   3.831 114.296  0.00  0.00    -0.297 N 
ATOM     32  H   TYR A   3      32.957   4.609 114.615  0.00  0.00    +0.150 HD
ATOM     33  O   VAL A   2      33.801   1.618 114.057  0.00  0.00    -0.273 OA
BRANCH  30  34
ATOM     34  CA  VAL A   2      31.715   2.407 114.944  0.00  0.00    +0.148 C 
BRANCH  34  36
ATOM     35  C   ALA A   1      30.068   1.977 113.190  0.00  0.00    +0.238 C 
ATOM     36  N   VAL A   2      30.897   1.513 114.123  0.00  0.00    -0.297 N 
ATOM     37  H   VAL A   2      30.965   0.486 114.273  0.00  0.00    +0.150 HD
ATOM     38  O   ALA A   1      29.930   3.177 112.960  0.00  0.00    -0.274 OA
BRANCH  35  39
ATOM     39  CA  ALA A   1      29.277   0.943 112.400  0.00  0.00    +0.145 C 
ATOM     40  CB  ALA A   1      30.107   0.436 111.220  0.00  0.00    +0.028 C 
BRANCH  39  41
ATOM     41  N   ALA A   1      28.007   1.478 111.920  0.00  0.00    -0.238 NA
ATOM     42  H   ALA A   1      27.972   2.424 111.489  0.00  0.00    +0.142 HD
ENDBRANCH  39  41
ENDBRANCH  35  39
ENDBRANCH  34  36
BRANCH  34  43
ATOM     43  CB  VAL A   2      31.801   1.900 116.405  0.00  0.00    +0.027 C 
ATOM     44  CG2 VAL A   2      32.816   2.714 117.194  0.00  0.00    +0.002 C 
ATOM     45  CG1 VAL A   2      30.438   2.007 117.057  0.00  0.00    +0.002 C 
ENDBRANCH  34  43
ENDBRANCH  30  34
ENDBRANCH  29  31
BRANCH  29  46
ATOM     46  CB  TYR A   3      34.767   4.938 112.458  0.00  0.00    +0.055 C 
BRANCH  46  47
ATOM     47  CG  TYR A   3      34.008   4.242 111.353  0.00  0.00    -0.020 A 
ATOM     48  CD2 TYR A   3      32.626   4.359 111.261  0.00  0.00    -0.001 A 
ATOM     49  CE2 TYR A   3      31.916   3.729 110.257  0.00  0.00    +0.036 A 
ATOM     50  CZ  TYR A   3      32.588   2.963 109.325  0.00  0.00    +0.134 A 
ATOM     51  CE1 TYR A   3      33.966   2.829 109.389  0.00  0.00    +0.036 A 
ATOM     52  CD1 TYR A   3      34.669   3.469 110.408  0.00  0.00    -0.001 A 
BRANCH  50  53
ATOM     53  OH  TYR A   3      31.872   2.326 108.341  0.00  0.00    -0.506 OA
ATOM     54  HH  TYR A   3      32.492   1.822 107.757  0.00  0.00    +0.292 HD
ENDBRANCH  50  53
ENDBRANCH  46  47
ENDBRANCH  29  46
ENDBRANCH   1  29
TORSDOF 19
REMARK  Name = ../refined-set-2016/2yz3/2yz3_pocket.pdb
REMARK  135 active torsions:
REMARK  status: ('A' for Active; 'I' for Inactive)
REMARK    1  A    between atoms: _1  and  _3
REMARK    2  A    between atoms: _3  and  _4
REMARK    3  A    between atoms: _3  and  _6
REMARK    4  A    between atoms: _6  and  _7
REMARK    5  A    between atoms: _7  and  _8
REMARK    6  A    between atoms: _13  and  _15
REMARK    7  A    between atoms: _15  and  _16
REMARK    8  A    between atoms: _15  and  _18
REMARK    9  A    between atoms: _18  and  _19
REMARK   10  A    between atoms: _21  and  _23
REMARK   11  A    between atoms: _23  and  _24
REMARK   12  A    between atoms: _23  and  _26
REMARK   13  A    between atoms: _26  and  _27
REMARK   14  A    between atoms: _33  and  _35
REMARK   15  A    between atoms: _35  and  _36
REMARK   16  A    between atoms: _35  and  _38
REMARK   17  A    between atoms: _38  and  _39
REMARK   18  A    between atoms: _42  and  _44
REMARK   19  A    between atoms: _44  and  _45
REMARK   20  A    between atoms: _48  and  _50
REMARK   21  A    between atoms: _50  and  _51
REMARK   22  A    between atoms: _50  and  _53
REMARK   23  A    between atoms: _56  and  _58
REMARK   24  A    between atoms: _58  and  _59
REMARK   25  A    between atoms: _58  and  _61
REMARK   26  A    between atoms: _61  and  _62
REMARK   27  A    between atoms: _67  and  _68
REMARK   28  A    between atoms: _71  and  _72
REMARK   29  A    between atoms: _77  and  _79
REMARK   30  A    between atoms: _79  and  _80
REMARK   31  A    between atoms: _79  and  _82
REMARK   32  A    between atoms: _82  and  _83
REMARK   33  A    between atoms: _85  and  _87
REMARK   34  A    between atoms: _87  and  _88
REMARK   35  A    between atoms: _87  and  _90
REMARK   36  A    between atoms: _90  and  _91
REMARK   37  A    between atoms: _96  and  _98
REMARK   38  A    between atoms: _98  and  _99
REMARK   39  A    between atoms: _98  and  _101
REMARK   40  A    between atoms: _101  and  _102
REMARK   41  A    between atoms: _112  and  _114
REMARK   42  A    between atoms: _125  and  _128
REMARK   43  A    between atoms: _128  and  _129
REMARK   44  A    between atoms: _137  and  _138
REMARK   45  A    between atoms: _146  and  _148
REMARK   46  A    between atoms: _148  and  _149
REMARK   47  A    between atoms: _148  and  _151
REMARK   48  A    between atoms: _151  and  _152
REMARK   49  A    between atoms: _155  and  _157
REMARK   50  A    between atoms: _157  and  _158
REMARK   51  A    between atoms: _157  and  _160
REMARK   52  A    between atoms: _160  and  _161
REMARK   53  A    between atoms: _161  and  _162
REMARK   54  A    between atoms: _162  and  ZN_361
REMARK   55  A    between atoms: _164  and  _166
REMARK   56  A    between atoms: _166  and  _167
REMARK   57  A    between atoms: _166  and  _169
REMARK   58  A    between atoms: _169  and  _170
REMARK   59  A    between atoms: _170  and  _171
REMARK   60  A    between atoms: _171  and  _172
REMARK   61  A    between atoms: _181  and  _183
REMARK   62  A    between atoms: _183  and  _184
REMARK   63  A    between atoms: _183  and  _186
REMARK   64  A    between atoms: _186  and  _187
REMARK   65  A    between atoms: _187  and  _188
REMARK   66  A    between atoms: _191  and  _193
REMARK   67  A    between atoms: _193  and  _194
REMARK   68  A    between atoms: _193  and  _196
REMARK   69  A    between atoms: _196  and  _197
REMARK   70  A    between atoms: _202  and  _204
REMARK   71  A    between atoms: _204  and  _205
REMARK   72  A    between atoms: _204  and  _207
REMARK   73  A    between atoms: _207  and  _208
REMARK   74  A    between atoms: _212  and  ZN_360
REMARK   75  A    between atoms: _213  and  _215
REMARK   76  A    between atoms: _215  and  _216
REMARK   77  A    between atoms: _215  and  _218
REMARK   78  A    between atoms: _218  and  _219
REMARK   79  A    between atoms: _221  and  _223
REMARK   80  A    between atoms: _223  and  _224
REMARK   81  A    between atoms: _226  and  _228
REMARK   82  A    between atoms: _228  and  _229
REMARK   83  A    between atoms: _228  and  _231
REMARK   84  A    between atoms: _231  and  _232
REMARK   85  A    between atoms: _232  and  ZN_361
REMARK   86  A    between atoms: _233  and  _235
REMARK   87  A    between atoms: _235  and  _236
REMARK   88  A    between atoms: _239  and  _241
REMARK   89  A    between atoms: _241  and  _242
REMARK   90  A    between atoms: _241  and  _244
REMARK   91  A    between atoms: _244  and  _245
REMARK   92  A    between atoms: _250  and  _251
REMARK   93  A    between atoms: _253  and  _255
REMARK   94  A    between atoms: _255  and  _256
REMARK   95  A    between atoms: _255  and  _258
REMARK   96  A    between atoms: _258  and  _259
REMARK   97  A    between atoms: _259  and  _260
REMARK   98  A    between atoms: _263  and  _265
REMARK   99  A    between atoms: _265  and  _266
REMARK  100  A    between atoms: _265  and  _268
REMARK  101  A    between atoms: _268  and  _269
REMARK  102  A    between atoms: _269  and  _270
REMARK  103  A    between atoms: _270  and  _271
REMARK  104  A    between atoms: _280  and  _282
REMARK  105  A    between atoms: _282  and  _283
REMARK  106  A    between atoms: _282  and  _285
REMARK  107  A    between atoms: _285  and  _286
REMARK  108  A    between atoms: _288  and  _290
REMARK  109  A    between atoms: _290  and  _291
REMARK  110  A    between atoms: _294  and  _296
REMARK  111  A    between atoms: _296  and  _297
REMARK  112  A    between atoms: _299  and  _301
REMARK  113  A    between atoms: _301  and  _302
REMARK  114  A    between atoms: _301  and  _304
REMARK  115  A    between atoms: _304  and  _305
REMARK  116  A    between atoms: _310  and  _312
REMARK  117  A    between atoms: _312  and  _313
REMARK  118  A    between atoms: _312  and  _315
REMARK  119  A    between atoms: _318  and  _320
REMARK  120  A    between atoms: _320  and  _321
REMARK  121  A    between atoms: _324  and  _326
REMARK  122  A    between atoms: _326  and  _327
REMARK  123  A    between atoms: _326  and  _329
REMARK  124  A    between atoms: _329  and  _330
REMARK  125  A    between atoms: _333  and  _335
REMARK  126  A    between atoms: _335  and  _336
REMARK  127  A    between atoms: _339  and  _341
REMARK  128  A    between atoms: _341  and  _342
REMARK  129  A    between atoms: _344  and  _346
REMARK  130  A    between atoms: _346  and  _347
REMARK  131  A    between atoms: _346  and  _349
REMARK  132  A    between atoms: _349  and  _350
REMARK  133  A    between atoms: _354  and  ZN_361
REMARK  134  A    between atoms: _355  and  _357
REMARK  135  A    between atoms: _357  and  _358
REMARK                            x       y       z     vdW  Elec       q    Type
REMARK                         _______ _______ _______ _____ _____    ______ ____
ROOT
ATOM      1  CG  TRP A   1      32.651  11.846 115.534  0.00  0.00    -0.002 A 
ATOM      2  CD1 TRP A   1      31.493  12.414 115.077  0.00  0.00    +0.068 A 
ATOM      3  NE1 TRP A   1      31.019  11.715 113.990  0.00  0.00    -0.352 N 
ATOM      4  CE2 TRP A   1      31.870  10.675 113.720  0.00  0.00    +0.056 A 
ATOM      5  CZ2 TRP A   1      31.812   9.690 112.720  0.00  0.00    +0.017 A 
ATOM      6  CH2 TRP A   1      32.814   8.754 112.695  0.00  0.00    +0.001 A 
ATOM      7  CZ3 TRP A   1      33.862   8.776 113.632  0.00  0.00    +0.000 A 
ATOM      8  CE3 TRP A   1      33.922   9.755 114.619  0.00  0.00    +0.001 A 
ATOM      9  HE1 TRP A   1      30.154  11.940 113.459  0.00  0.00    +0.166 HD
ATOM     10  CD2 TRP A   1      32.913  10.725 114.672  0.00  0.00    +0.013 A 
ENDROOT
BRANCH   1  11
ATOM     11  CB  TRP A   1      33.475  12.282 116.723  0.00  0.00    +0.053 C 
BRANCH  11  12
ATOM     12  CA  TRP A   1      33.105  13.650 117.318  0.00  0.00    +0.137 C 
BRANCH  12  13
ATOM     13  N   TRP A   1      34.270  14.203 118.020  0.00  0.00    -0.239 NA
ATOM     14  H   TRP A   1      34.651  15.122 117.717  0.00  0.00    +0.142 HD
ENDBRANCH  12  13
BRANCH  12  15
ATOM     15  C   TRP A   1      31.837  13.493 118.155  0.00  0.00    +0.224 C 
ATOM     16  O   TRP A   1      31.271  12.399 118.228  0.00  0.00    -0.287 OA
ENDBRANCH  12  15
ENDBRANCH  11  12
ENDBRANCH   1  11
TORSDOF 4
REMARK  Name = ../refined-set-2016/2yz3/2yz3_pocket.pdb
REMARK  135 active torsions:
REMARK  status: ('A' for Active; 'I' for Inactive)
REMARK    1  A    between atoms: _1  and  _3
REMARK    2  A    between atoms: _3  and  _4
REMARK    3  A    between atoms: _3  and  _6
REMARK    4  A    between atoms: _6  and  _7
REMARK    5  A    between atoms: _7  and  _8
REMARK    6  A    between atoms: _13  and  _15
REMARK    7  A    between atoms: _15  and  _16
REMARK    8  A    between atoms: _15  and  _18
REMARK    9  A    between atoms: _18  and  _19
REMARK   10  A    between atoms: _21  and  _23
REMARK   11  A    between atoms: _23  and  _24
REMARK   12  A    between atoms: _23  and  _26
REMARK   13  A    between atoms: _26  and  _27
REMARK   14  A    between atoms: _33  and  _35
REMARK   15  A    between atoms: _35  and  _36
REMARK   16  A    between atoms: _35  and  _38
REMARK   17  A    between atoms: _38  and  _39
REMARK   18  A    between atoms: _42  and  _44
REMARK   19  A    between atoms: _44  and  _45
REMARK   20  A    between atoms: _48  and  _50
REMARK   21  A    between atoms: _50  and  _51
REMARK   22  A    between atoms: _50  and  _53
REMARK   23  A    between atoms: _56  and  _58
REMARK   24  A    between atoms: _58  and  _59
REMARK   25  A    between atoms: _58  and  _61
REMARK   26  A    between atoms: _61  and  _62
REMARK   27  A    between atoms: _67  and  _68
REMARK   28  A    between atoms: _71  and  _72
REMARK   29  A    between atoms: _77  and  _79
REMARK   30  A    between atoms: _79  and  _80
REMARK   31  A    between atoms: _79  and  _82
REMARK   32  A    between atoms: _82  and  _83
REMARK   33  A    between atoms: _85  and  _87
REMARK   34  A    between atoms: _87  and  _88
REMARK   35  A    between atoms: _87  and  _90
REMARK   36  A    between atoms: _90  and  _91
REMARK   37  A    between atoms: _96  and  _98
REMARK   38  A    between atoms: _98  and  _99
REMARK   39  A    between atoms: _98  and  _101
REMARK   40  A    between atoms: _101  and  _102
REMARK   41  A    between atoms: _112  and  _114
REMARK   42  A    between atoms: _125  and  _128
REMARK   43  A    between atoms: _128  and  _129
REMARK   44  A    between atoms: _137  and  _138
REMARK   45  A    between atoms: _146  and  _148
REMARK   46  A    between atoms: _148  and  _149
REMARK   47  A    between atoms: _148  and  _151
REMARK   48  A    between atoms: _151  and  _152
REMARK   49  A    between atoms: _155  and  _157
REMARK   50  A    between atoms: _157  and  _158
REMARK   51  A    between atoms: _157  and  _160
REMARK   52  A    between atoms: _160  and  _161
REMARK   53  A    between atoms: _161  and  _162
REMARK   54  A    between atoms: _162  and  ZN_361
REMARK   55  A    between atoms: _164  and  _166
REMARK   56  A    between atoms: _166  and  _167
REMARK   57  A    between atoms: _166  and  _169
REMARK   58  A    between atoms: _169  and  _170
REMARK   59  A    between atoms: _170  and  _171
REMARK   60  A    between atoms: _171  and  _172
REMARK   61  A    between atoms: _181  and  _183
REMARK   62  A    between atoms: _183  and  _184
REMARK   63  A    between atoms: _183  and  _186
REMARK   64  A    between atoms: _186  and  _187
REMARK   65  A    between atoms: _187  and  _188
REMARK   66  A    between atoms: _191  and  _193
REMARK   67  A    between atoms: _193  and  _194
REMARK   68  A    between atoms: _193  and  _196
REMARK   69  A    between atoms: _196  and  _197
REMARK   70  A    between atoms: _202  and  _204
REMARK   71  A    between atoms: _204  and  _205
REMARK   72  A    between atoms: _204  and  _207
REMARK   73  A    between atoms: _207  and  _208
REMARK   74  A    between atoms: _212  and  ZN_360
REMARK   75  A    between atoms: _213  and  _215
REMARK   76  A    between atoms: _215  and  _216
REMARK   77  A    between atoms: _215  and  _218
REMARK   78  A    between atoms: _218  and  _219
REMARK   79  A    between atoms: _221  and  _223
REMARK   80  A    between atoms: _223  and  _224
REMARK   81  A    between atoms: _226  and  _228
REMARK   82  A    between atoms: _228  and  _229
REMARK   83  A    between atoms: _228  and  _231
REMARK   84  A    between atoms: _231  and  _232
REMARK   85  A    between atoms: _232  and  ZN_361
REMARK   86  A    between atoms: _233  and  _235
REMARK   87  A    between atoms: _235  and  _236
REMARK   88  A    between atoms: _239  and  _241
REMARK   89  A    between atoms: _241  and  _242
REMARK   90  A    between atoms: _241  and  _244
REMARK   91  A    between atoms: _244  and  _245
REMARK   92  A    between atoms: _250  and  _251
REMARK   93  A    between atoms: _253  and  _255
REMARK   94  A    between atoms: _255  and  _256
REMARK   95  A    between atoms: _255  and  _258
REMARK   96  A    between atoms: _258  and  _259
REMARK   97  A    between atoms: _259  and  _260
REMARK   98  A    between atoms: _263  and  _265
REMARK   99  A    between atoms: _265  and  _266
REMARK  100  A    between atoms: _265  and  _268
REMARK  101  A    between atoms: _268  and  _269
REMARK  102  A    between atoms: _269  and  _270
REMARK  103  A    between atoms: _270  and  _271
REMARK  104  A    between atoms: _280  and  _282
REMARK  105  A    between atoms: _282  and  _283
REMARK  106  A    between atoms: _282  and  _285
REMARK  107  A    between atoms: _285  and  _286
REMARK  108  A    between atoms: _288  and  _290
REMARK  109  A    between atoms: _290  and  _291
REMARK  110  A    between atoms: _294  and  _296
REMARK  111  A    between atoms: _296  and  _297
REMARK  112  A    between atoms: _299  and  _301
REMARK  113  A    between atoms: _301  and  _302
REMARK  114  A    between atoms: _301  and  _304
REMARK  115  A    between atoms: _304  and  _305
REMARK  116  A    between atoms: _310  and  _312
REMARK  117  A    between atoms: _312  and  _313
REMARK  118  A    between atoms: _312  and  _315
REMARK  119  A    between atoms: _318  and  _320
REMARK  120  A    between atoms: _320  and  _321
REMARK  121  A    between atoms: _324  and  _326
REMARK  122  A    between atoms: _326  and  _327
REMARK  123  A    between atoms: _326  and  _329
REMARK  124  A    between atoms: _329  and  _330
REMARK  125  A    between atoms: _333  and  _335
REMARK  126  A    between atoms: _335  and  _336
REMARK  127  A    between atoms: _339  and  _341
REMARK  128  A    between atoms: _341  and  _342
REMARK  129  A    between atoms: _344  and  _346
REMARK  130  A    between atoms: _346  and  _347
REMARK  131  A    between atoms: _346  and  _349
REMARK  132  A    between atoms: _349  and  _350
REMARK  133  A    between atoms: _354  and  ZN_361
REMARK  134  A    between atoms: _355  and  _357
REMARK  135  A    between atoms: _357  and  _358
REMARK                            x       y       z     vdW  Elec       q    Type
REMARK                         _______ _______ _______ _____ _____    ______ ____
ROOT
ATOM      1  C   ASP A   4      31.869  15.637 113.666  0.00  0.00    +0.000 C 
ATOM      2  O   ASP A   4      31.938  15.820 114.874  0.00  0.00    +0.000 OA
ATOM      3  N   UNK A   5      32.795  14.956 113.003  0.00  0.00    +0.000 N 
ATOM      4  H   UNK A   5      32.690  14.788 111.982  0.00  0.00    +0.000 HD
ENDROOT
BRANCH   1   5
ATOM      5  CA  ASP A   4      30.680  16.190 112.878  0.00  0.00    +0.000 C 
BRANCH   5   8
ATOM      6  C   UNK A   3      31.829  17.155 110.943  0.00  0.00    +0.000 C 
ATOM      7  O   UNK A   3      32.643  17.754 111.645  0.00  0.00    +0.000 OA
ATOM      8  N   ASP A   4      30.874  16.378 111.442  0.00  0.00    +0.000 N 
ATOM      9  H   ASP A   4      30.239  15.883 110.784  0.00  0.00    +0.000 HD
BRANCH   6  18
ATOM     10  C   UNK A   1      36.510  20.824 108.158  0.00  0.00    +0.000 C 
ATOM     11  C   UNK A   1      35.162  20.755 108.839  0.00  0.00    +0.000 C 
ATOM     12  O   UNK A   1      35.104  20.630 110.069  0.00  0.00    +0.000 OA
ATOM     13  N   UNK A   2      34.075  20.856 108.075  0.00  0.00    +0.000 N 
ATOM     14  C   UNK A   2      32.738  20.916 108.662  0.00  0.00    +0.000 C 
ATOM     15  C   UNK A   2      32.014  19.671 109.184  0.00  0.00    +0.000 C 
ATOM     16  O   UNK A   2      30.961  19.809 109.806  0.00  0.00    +0.000 OA
ATOM     17  N   UNK A   3      32.545  18.475 108.941  0.00  0.00    +0.000 N 
ATOM     18  C   UNK A   3      31.878  17.255 109.419  0.00  0.00    +0.000 C 
ATOM     19  C   UNK A   3      32.564  16.018 108.838  0.00  0.00    +0.000 C 
ATOM     20  C   UNK A   3      32.300  15.820 107.381  0.00  0.00    +0.000 A 
ATOM     21  C   UNK A   3      31.317  16.297 106.580  0.00  0.00    +0.000 A 
ATOM     22  N   UNK A   3      31.571  15.838 105.311  0.00  0.00    +0.000 NA
ATOM     23  C   UNK A   3      32.666  15.102 105.331  0.00  0.00    +0.000 A 
ATOM     24  N   UNK A   3      33.123  15.073 106.570  0.00  0.00    +0.000 N 
ATOM     25 ZN   UNK A   3      34.994  14.513 106.913  0.00  0.00    +0.000 Zn
ATOM     26  N   UNK A   3      35.947  16.252 107.943  0.00  0.00    +0.000 N 
ATOM     27  C   UNK A   3      37.249  16.308 108.148  0.00  0.00    +0.000 A 
ATOM     28  N   UNK A   3      37.655  17.542 107.904  0.00  0.00    +0.000 NA
ATOM     29  C   UNK A   3      36.578  18.311 107.521  0.00  0.00    +0.000 A 
ATOM     30  C   UNK A   3      35.501  17.492 107.556  0.00  0.00    +0.000 A 
ATOM     31  H   UNK A   3      33.436  18.403 108.410  0.00  0.00    +0.000 HD
ATOM     32  H   UNK A   2      34.180  20.893 107.041  0.00  0.00    +0.000 HD
ATOM     33  C   UNK A   3      36.718  19.730 107.064  0.00  0.00    +0.000 C 
BRANCH  25  34
ATOM     34  N   UNK A   3      35.634  13.927 104.862  0.00  0.00    +0.000 N 
ATOM     35  C   UNK A   3      36.463  14.923 104.402  0.00  0.00    +0.000 A 
ATOM     36  C   UNK A   3      37.368  14.343 103.580  0.00  0.00    +0.000 A 
ATOM     37  N   UNK A   3      37.067  12.998 103.572  0.00  0.00    +0.000 NA
ATOM     38  C   UNK A   3      36.022  12.775 104.348  0.00  0.00    +0.000 A 
BRANCH  36  39
ATOM     39  C   UNK A   3      38.459  14.936 102.744  0.00  0.00    +0.000 C 
BRANCH  39  40
ATOM     40  C   UNK A   3      38.060  15.171 101.288  0.00  0.00    +0.000 C 
BRANCH  40  41
ATOM     41  C   UNK A   3      36.804  16.036 101.242  0.00  0.00    +0.000 C 
ATOM     42  N   UNK A   2      37.001  17.333 101.462  0.00  0.00    +0.000 N 
ATOM     43  H   UNK A   2      37.965  17.666 101.664  0.00  0.00    +0.000 HD
ATOM     44  O   UNK A   3      35.692  15.544 101.023  0.00  0.00    +0.000 OA
BRANCH  42  45
ATOM     45  C   UNK A   2      35.915  18.305 101.431  0.00  0.00    +0.000 C 
BRANCH  45  46
ATOM     46  C   UNK A   2      36.448  19.573 100.765  0.00  0.00    +0.000 C 
ATOM     47  O   UNK A   2      37.656  19.713 100.566  0.00  0.00    +0.000 OA
ENDBRANCH  45  46
BRANCH  45  48
ATOM     48  C   UNK A   2      35.431  18.612 102.855  0.00  0.00    +0.000 C 
BRANCH  48  49
ATOM     49  O   UNK A   2      36.480  19.120 103.660  0.00  0.00    +0.000 OA
ATOM     50  H   UNK A   2      36.136  19.307 104.569  0.00  0.00    +0.000 HD
ENDBRANCH  48  49
ENDBRANCH  45  48
ENDBRANCH  42  45
ENDBRANCH  40  41
BRANCH  40  51
ATOM     51  N   UNK A   3      39.088  15.926 100.590  0.00  0.00    +0.000 NA
ATOM     52  H   UNK A   1      39.978  16.152 101.078  0.00  0.00    +0.000 HD
ENDBRANCH  40  51
ENDBRANCH  39  40
ENDBRANCH  36  39
ENDBRANCH  25  34
BRANCH  10  53
ATOM     53  N   UNK A   1      37.529  20.854 109.209  0.00  0.00    +0.000 NA
ATOM     54  H   UNK A   1      37.259  20.584 110.176  0.00  0.00    +0.000 HD
ENDBRANCH  10  53
BRANCH  14  55
ATOM     55  C   UNK A   2      31.785  21.666 107.714  0.00  0.00    +0.000 C 
BRANCH  55  56
ATOM     56  C   UNK A   2      31.177  20.796 106.644  0.00  0.00    +0.000 A 
ATOM     57  C   UNK A   2      29.829  20.456 106.698  0.00  0.00    +0.000 A 
ATOM     58  C   UNK A   2      29.256  19.643 105.721  0.00  0.00    +0.000 A 
ATOM     59  C   UNK A   2      30.033  19.160 104.675  0.00  0.00    +0.000 A 
ATOM     60  C   UNK A   2      31.383  19.495 104.611  0.00  0.00    +0.000 A 
ATOM     61  C   UNK A   2      31.947  20.311 105.596  0.00  0.00    +0.000 A 
ENDBRANCH  55  56
ENDBRANCH  14  55
ENDBRANCH   6  18
ENDBRANCH   5   8
BRANCH   5  62
ATOM     62  CB  ASP A   4      29.431  15.338 113.125  0.00  0.00    +0.000 C 
BRANCH  62  63
ATOM     63  CG  ASP A   4      28.212  16.188 113.466  0.00  0.00    +0.000 C 
ATOM     64  OD2 ASP A   4      28.364  17.154 114.245  0.00  0.00    +0.000 OA
ATOM     65  OD1 ASP A   4      27.107  15.894 112.964  0.00  0.00    +0.000 OA
ENDBRANCH  62  63
ENDBRANCH   5  62
ENDBRANCH   1   5
BRANCH   3  66
ATOM     66  C   UNK A   5      33.959  14.446 113.713  0.00  0.00    +0.000 C 
BRANCH  66  67
ATOM     67  C   UNK A   5      34.984  15.562 113.908  0.00  0.00    +0.000 C 
ATOM     68  O   UNK A   5      36.047  15.342 114.485  0.00  0.00    +0.000 OA
ATOM     69  N   ARG A   6      34.657  16.755 113.411  0.00  0.00    +0.000 N 
ATOM     70  H   ARG A   6      33.749  16.858 112.915  0.00  0.00    +0.000 HD
BRANCH  69  71
ATOM     71  CA  ARG A   6      35.526  17.923 113.536  0.00  0.00    +0.000 C 
BRANCH  71  72
ATOM     72  C   ARG A   6      34.857  19.051 114.336  0.00  0.00    +0.000 C 
ATOM     73  O   ARG A   6      35.516  19.736 115.113  0.00  0.00    +0.000 OA
ENDBRANCH  71  72
BRANCH  71  74
ATOM     74  CB  ARG A   6      35.905  18.469 112.155  0.00  0.00    +0.000 C 
BRANCH  74  75
ATOM     75  CG  ARG A   6      36.472  17.450 111.181  0.00  0.00    +0.000 C 
BRANCH  75  76
ATOM     76  CD  ARG A   6      37.752  16.847 111.689  0.00  0.00    +0.000 C 
BRANCH  76  77
ATOM     77  NE  ARG A   6      37.673  15.395 111.781  0.00  0.00    +0.330 N 
ATOM     78  CZ  ARG A   6      38.595  14.649 112.376  0.00  0.00    +0.000 C 
ATOM     79  NH2 ARG A   6      39.655  15.230 112.918  0.00  0.00    +0.330 N 
ATOM     80 HH21 ARG A   6      40.382  14.652 113.386  0.00  0.00    +0.000 HD
ATOM     81 HH22 ARG A   6      39.760  16.264 112.875  0.00  0.00    +0.000 HD
ATOM     82  NH1 ARG A   6      38.461  13.326 112.425  0.00  0.00    +0.330 N 
ATOM     83 HH11 ARG A   6      39.187  12.747 112.893  0.00  0.00    +0.000 HD
ATOM     84 HH12 ARG A   6      37.630  12.871 111.995  0.00  0.00    +0.000 HD
ATOM     85  HE  ARG A   6      36.851  14.918 111.358  0.00  0.00    +0.000 HD
ENDBRANCH  76  77
ENDBRANCH  75  76
ENDBRANCH  74  75
ENDBRANCH  71  74
ENDBRANCH  69  71
ENDBRANCH  66  67
BRANCH  66  86
ATOM     86  C   UNK A   5      34.598  13.283 112.954  0.00  0.00    +0.000 C 
BRANCH  86  87
ATOM     87  C   UNK A   5      35.021  13.662 111.555  0.00  0.00    +0.000 C 
ATOM     88  O   UNK A   5      34.466  14.628 110.992  0.00  0.00    +0.000 OA
BRANCH  87  89
ATOM     89  O   UNK A   5      35.900  12.970 111.015  0.00  0.00    +0.000 OA
BRANCH  89  90
ATOM     90 ZN   UNK A   5      36.780  12.337 109.410  0.00  0.00    +0.000 Zn
BRANCH  90  91
ATOM     91  N   UNK A   2      37.343  10.443 110.201  0.00  0.00    +0.000 N 
ATOM     92  C   UNK A   2      37.006   9.832 111.321  0.00  0.00    +0.000 A 
ATOM     93  N   UNK A   2      37.863   8.851 111.533  0.00  0.00    +0.000 NA
ATOM     94  C   UNK A   2      38.787   8.824 110.512  0.00  0.00    +0.000 A 
ATOM     95  C   UNK A   2      38.453   9.832 109.673  0.00  0.00    +0.000 A 
BRANCH  94  96
ATOM     96  C   UNK A   2      39.905   7.836 110.460  0.00  0.00    +0.000 C 
BRANCH  96  97
ATOM     97  C   UNK A   2      41.168   8.297 111.180  0.00  0.00    +0.000 C 
BRANCH  97  98
ATOM     98  N   UNK A   2      41.631   9.573 110.638  0.00  0.00    +0.000 N 
ATOM     99  C   UNK A   1      41.307  10.745 111.178  0.00  0.00    +0.000 C 
ATOM    100  O   UNK A   1      40.591  10.852 112.176  0.00  0.00    +0.000 OA
ATOM    101  H   UNK A   2      42.239   9.564 109.795  0.00  0.00    +0.000 HD
BRANCH  99 102
ATOM    102  C   UNK A   1      41.869  11.975 110.488  0.00  0.00    +0.000 C 
BRANCH 102 103
ATOM    103  N   UNK A   1      43.047  11.663 109.693  0.00  0.00    +0.000 NA
ATOM    104  H   UNK A   1      43.010  11.733 108.656  0.00  0.00    +0.000 HD
ENDBRANCH 102 103
ENDBRANCH  99 102
ENDBRANCH  97  98
BRANCH  97 105
ATOM    105  C   UNK A   2      42.224   7.228 111.000  0.00  0.00    +0.000 C 
ATOM    106  N   UNK A   3      42.579   6.553 112.086  0.00  0.00    +0.000 N 
ATOM    107  H   UNK A   3      42.152   6.776 113.008  0.00  0.00    +0.000 HD
ATOM    108  O   UNK A   2      42.710   7.010 109.886  0.00  0.00    +0.000 OA
BRANCH 106 109
ATOM    109  C   UNK A   3      43.565   5.505 111.972  0.00  0.00    +0.000 C 
BRANCH 109 110
ATOM    110  C   UNK A   3      44.913   5.808 112.589  0.00  0.00    +0.000 C 
ATOM    111  O   UNK A   3      45.079   6.767 113.341  0.00  0.00    +0.000 OA
ENDBRANCH 109 110
ENDBRANCH 106 109
ENDBRANCH  97 105
ENDBRANCH  96  97
ENDBRANCH  94  96
ENDBRANCH  90  91
BRANCH  90 112
ATOM    112  S   UNK A   2      38.695  13.335 108.984  0.00  0.00    +0.000 S 
BRANCH 112 113
ATOM    113  C   UNK A   2      38.871  13.507 107.166  0.00  0.00    +0.000 C 
BRANCH 113 114
ATOM    114  C   UNK A   2      40.356  13.506 106.820  0.00  0.00    +0.000 C 
BRANCH 114 115
ATOM    115  N   UNK A   2      40.998  14.494 107.663  0.00  0.00    +0.000 N 
ATOM    116  H   UNK A   2      40.448  15.307 108.007  0.00  0.00    +0.000 HD
ATOM    117  C   UNK A   1      42.272  14.380 108.003  0.00  0.00    +0.000 C 
ATOM    118  O   UNK A   1      42.997  13.494 107.558  0.00  0.00    +0.000 OA
BRANCH 117 119
ATOM    119  C   UNK A   1      42.807  15.435 108.946  0.00  0.00    +0.000 C 
BRANCH 119 120
ATOM    120  N   UNK A   1      44.250  15.470 108.897  0.00  0.00    +0.000 NA
ATOM    121  H   UNK A   1      44.818  15.201 109.726  0.00  0.00    +0.000 HD
ENDBRANCH 119 120
ENDBRANCH 117 119
ENDBRANCH 114 115
BRANCH 114 122
ATOM    122  C   UNK A   2      40.617  13.602 105.316  0.00  0.00    +0.000 C 
ATOM    123  N   UNK A   3      41.530  14.492 104.941  0.00  0.00    +0.000 N 
ATOM    124  H   UNK A   3      41.977  15.093 105.662  0.00  0.00    +0.000 HD
ATOM    125  O   UNK A   2      40.009  12.882 104.515  0.00  0.00    +0.000 OA
BRANCH 123 126
ATOM    126  C   UNK A   3      41.921  14.648 103.548  0.00  0.00    +0.000 C 
ATOM    127  C   UNK A   3      42.461  16.062 103.296  0.00  0.00    +0.000 C 
BRANCH 126 128
ATOM    128  C   UNK A   3      43.026  13.609 103.356  0.00  0.00    +0.000 C 
ATOM    129  O   UNK A   3      43.328  13.187 102.237  0.00  0.00    +0.000 OA
ENDBRANCH 126 128
ENDBRANCH 123 126
ENDBRANCH 114 122
ENDBRANCH 113 114
ENDBRANCH 112 113
ENDBRANCH  90 112
ENDBRANCH  89  90
ENDBRANCH  87  89
ENDBRANCH  86  87
ENDBRANCH  66  86
ENDBRANCH   3  66
TORSDOF 47
REMARK  Name = ../refined-set-2016/2yz3/2yz3_pocket.pdb
REMARK  135 active torsions:
REMARK  status: ('A' for Active; 'I' for Inactive)
REMARK    1  A    between atoms: _1  and  _3
REMARK    2  A    between atoms: _3  and  _4
REMARK    3  A    between atoms: _3  and  _6
REMARK    4  A    between atoms: _6  and  _7
REMARK    5  A    between atoms: _7  and  _8
REMARK    6  A    between atoms: _13  and  _15
REMARK    7  A    between atoms: _15  and  _16
REMARK    8  A    between atoms: _15  and  _18
REMARK    9  A    between atoms: _18  and  _19
REMARK   10  A    between atoms: _21  and  _23
REMARK   11  A    between atoms: _23  and  _24
REMARK   12  A    between atoms: _23  and  _26
REMARK   13  A    between atoms: _26  and  _27
REMARK   14  A    between atoms: _33  and  _35
REMARK   15  A    between atoms: _35  and  _36
REMARK   16  A    between atoms: _35  and  _38
REMARK   17  A    between atoms: _38  and  _39
REMARK   18  A    between atoms: _42  and  _44
REMARK   19  A    between atoms: _44  and  _45
REMARK   20  A    between atoms: _48  and  _50
REMARK   21  A    between atoms: _50  and  _51
REMARK   22  A    between atoms: _50  and  _53
REMARK   23  A    between atoms: _56  and  _58
REMARK   24  A    between atoms: _58  and  _59
REMARK   25  A    between atoms: _58  and  _61
REMARK   26  A    between atoms: _61  and  _62
REMARK   27  A    between atoms: _67  and  _68
REMARK   28  A    between atoms: _71  and  _72
REMARK   29  A    between atoms: _77  and  _79
REMARK   30  A    between atoms: _79  and  _80
REMARK   31  A    between atoms: _79  and  _82
REMARK   32  A    between atoms: _82  and  _83
REMARK   33  A    between atoms: _85  and  _87
REMARK   34  A    between atoms: _87  and  _88
REMARK   35  A    between atoms: _87  and  _90
REMARK   36  A    between atoms: _90  and  _91
REMARK   37  A    between atoms: _96  and  _98
REMARK   38  A    between atoms: _98  and  _99
REMARK   39  A    between atoms: _98  and  _101
REMARK   40  A    between atoms: _101  and  _102
REMARK   41  A    between atoms: _112  and  _114
REMARK   42  A    between atoms: _125  and  _128
REMARK   43  A    between atoms: _128  and  _129
REMARK   44  A    between atoms: _137  and  _138
REMARK   45  A    between atoms: _146  and  _148
REMARK   46  A    between atoms: _148  and  _149
REMARK   47  A    between atoms: _148  and  _151
REMARK   48  A    between atoms: _151  and  _152
REMARK   49  A    between atoms: _155  and  _157
REMARK   50  A    between atoms: _157  and  _158
REMARK   51  A    between atoms: _157  and  _160
REMARK   52  A    between atoms: _160  and  _161
REMARK   53  A    between atoms: _161  and  _162
REMARK   54  A    between atoms: _162  and  ZN_361
REMARK   55  A    between atoms: _164  and  _166
REMARK   56  A    between atoms: _166  and  _167
REMARK   57  A    between atoms: _166  and  _169
REMARK   58  A    between atoms: _169  and  _170
REMARK   59  A    between atoms: _170  and  _171
REMARK   60  A    between atoms: _171  and  _172
REMARK   61  A    between atoms: _181  and  _183
REMARK   62  A    between atoms: _183  and  _184
REMARK   63  A    between atoms: _183  and  _186
REMARK   64  A    between atoms: _186  and  _187
REMARK   65  A    between atoms: _187  and  _188
REMARK   66  A    between atoms: _191  and  _193
REMARK   67  A    between atoms: _193  and  _194
REMARK   68  A    between atoms: _193  and  _196
REMARK   69  A    between atoms: _196  and  _197
REMARK   70  A    between atoms: _202  and  _204
REMARK   71  A    between atoms: _204  and  _205
REMARK   72  A    between atoms: _204  and  _207
REMARK   73  A    between atoms: _207  and  _208
REMARK   74  A    between atoms: _212  and  ZN_360
REMARK   75  A    between atoms: _213  and  _215
REMARK   76  A    between atoms: _215  and  _216
REMARK   77  A    between atoms: _215  and  _218
REMARK   78  A    between atoms: _218  and  _219
REMARK   79  A    between atoms: _221  and  _223
REMARK   80  A    between atoms: _223  and  _224
REMARK   81  A    between atoms: _226  and  _228
REMARK   82  A    between atoms: _228  and  _229
REMARK   83  A    between atoms: _228  and  _231
REMARK   84  A    between atoms: _231  and  _232
REMARK   85  A    between atoms: _232  and  ZN_361
REMARK   86  A    between atoms: _233  and  _235
REMARK   87  A    between atoms: _235  and  _236
REMARK   88  A    between atoms: _239  and  _241
REMARK   89  A    between atoms: _241  and  _242
REMARK   90  A    between atoms: _241  and  _244
REMARK   91  A    between atoms: _244  and  _245
REMARK   92  A    between atoms: _250  and  _251
REMARK   93  A    between atoms: _253  and  _255
REMARK   94  A    between atoms: _255  and  _256
REMARK   95  A    between atoms: _255  and  _258
REMARK   96  A    between atoms: _258  and  _259
REMARK   97  A    between atoms: _259  and  _260
REMARK   98  A    between atoms: _263  and  _265
REMARK   99  A    between atoms: _265  and  _266
REMARK  100  A    between atoms: _265  and  _268
REMARK  101  A    between atoms: _268  and  _269
REMARK  102  A    between atoms: _269  and  _270
REMARK  103  A    between atoms: _270  and  _271
REMARK  104  A    between atoms: _280  and  _282
REMARK  105  A    between atoms: _282  and  _283
REMARK  106  A    between atoms: _282  and  _285
REMARK  107  A    between atoms: _285  and  _286
REMARK  108  A    between atoms: _288  and  _290
REMARK  109  A    between atoms: _290  and  _291
REMARK  110  A    between atoms: _294  and  _296
REMARK  111  A    between atoms: _296  and  _297
REMARK  112  A    between atoms: _299  and  _301
REMARK  113  A    between atoms: _301  and  _302
REMARK  114  A    between atoms: _301  and  _304
REMARK  115  A    between atoms: _304  and  _305
REMARK  116  A    between atoms: _310  and  _312
REMARK  117  A    between atoms: _312  and  _313
REMARK  118  A    between atoms: _312  and  _315
REMARK  119  A    between atoms: _318  and  _320
REMARK  120  A    between atoms: _320  and  _321
REMARK  121  A    between atoms: _324  and  _326
REMARK  122  A    between atoms: _326  and  _327
REMARK  123  A    between atoms: _326  and  _329
REMARK  124  A    between atoms: _329  and  _330
REMARK  125  A    between atoms: _333  and  _335
REMARK  126  A    between atoms: _335  and  _336
REMARK  127  A    between atoms: _339  and  _341
REMARK  128  A    between atoms: _341  and  _342
REMARK  129  A    between atoms: _344  and  _346
REMARK  130  A    between atoms: _346  and  _347
REMARK  131  A    between atoms: _346  and  _349
REMARK  132  A    between atoms: _349  and  _350
REMARK  133  A    between atoms: _354  and  ZN_361
REMARK  134  A    between atoms: _355  and  _357
REMARK  135  A    between atoms: _357  and  _358
REMARK                            x       y       z     vdW  Elec       q    Type
REMARK                         _______ _______ _______ _____ _____    ______ ____
ROOT
ATOM      1  CA  GLU A   1      24.294  21.122 106.993  0.00  0.00    +0.134 C 
ENDROOT
BRANCH   1   2
ATOM      2  N   GLU A   1      24.570  22.536 106.799  0.00  0.00    -0.239 NA
ATOM      3  H   GLU A   1      25.446  22.960 107.166  0.00  0.00    +0.142 HD
ENDBRANCH   1   2
BRANCH   1   4
ATOM      4  C   GLU A   1      23.668  20.921 108.358  0.00  0.00    +0.224 C 
ATOM      5  O   GLU A   1      23.183  19.841 108.675  0.00  0.00    -0.287 OA
ENDBRANCH   1   4
BRANCH   1   6
ATOM      6  CB  GLU A   1      25.553  20.270 106.863  0.00  0.00    +0.037 C 
BRANCH   6   7
ATOM      7  CG  GLU A   1      25.214  18.793 106.678  0.00  0.00    +0.116 C 
BRANCH   7   8
ATOM      8  CD  GLU A   1      26.093  18.106 105.646  0.00  0.00    +0.365 C 
ATOM      9  OE2 GLU A   1      27.075  17.439 106.050  0.00  0.00    -0.246 OA
ATOM     10  OE1 GLU A   1      25.806  18.248 104.431  0.00  0.00    -0.246 OA
ENDBRANCH   7   8
ENDBRANCH   6   7
ENDBRANCH   1   6
TORSDOF 5
REMARK  Name = ../refined-set-2016/2yz3/2yz3_pocket.pdb
REMARK  135 active torsions:
REMARK  status: ('A' for Active; 'I' for Inactive)
REMARK    1  A    between atoms: _1  and  _3
REMARK    2  A    between atoms: _3  and  _4
REMARK    3  A    between atoms: _3  and  _6
REMARK    4  A    between atoms: _6  and  _7
REMARK    5  A    between atoms: _7  and  _8
REMARK    6  A    between atoms: _13  and  _15
REMARK    7  A    between atoms: _15  and  _16
REMARK    8  A    between atoms: _15  and  _18
REMARK    9  A    between atoms: _18  and  _19
REMARK   10  A    between atoms: _21  and  _23
REMARK   11  A    between atoms: _23  and  _24
REMARK   12  A    between atoms: _23  and  _26
REMARK   13  A    between atoms: _26  and  _27
REMARK   14  A    between atoms: _33  and  _35
REMARK   15  A    between atoms: _35  and  _36
REMARK   16  A    between atoms: _35  and  _38
REMARK   17  A    between atoms: _38  and  _39
REMARK   18  A    between atoms: _42  and  _44
REMARK   19  A    between atoms: _44  and  _45
REMARK   20  A    between atoms: _48  and  _50
REMARK   21  A    between atoms: _50  and  _51
REMARK   22  A    between atoms: _50  and  _53
REMARK   23  A    between atoms: _56  and  _58
REMARK   24  A    between atoms: _58  and  _59
REMARK   25  A    between atoms: _58  and  _61
REMARK   26  A    between atoms: _61  and  _62
REMARK   27  A    between atoms: _67  and  _68
REMARK   28  A    between atoms: _71  and  _72
REMARK   29  A    between atoms: _77  and  _79
REMARK   30  A    between atoms: _79  and  _80
REMARK   31  A    between atoms: _79  and  _82
REMARK   32  A    between atoms: _82  and  _83
REMARK   33  A    between atoms: _85  and  _87
REMARK   34  A    between atoms: _87  and  _88
REMARK   35  A    between atoms: _87  and  _90
REMARK   36  A    between atoms: _90  and  _91
REMARK   37  A    between atoms: _96  and  _98
REMARK   38  A    between atoms: _98  and  _99
REMARK   39  A    between atoms: _98  and  _101
REMARK   40  A    between atoms: _101  and  _102
REMARK   41  A    between atoms: _112  and  _114
REMARK   42  A    between atoms: _125  and  _128
REMARK   43  A    between atoms: _128  and  _129
REMARK   44  A    between atoms: _137  and  _138
REMARK   45  A    between atoms: _146  and  _148
REMARK   46  A    between atoms: _148  and  _149
REMARK   47  A    between atoms: _148  and  _151
REMARK   48  A    between atoms: _151  and  _152
REMARK   49  A    between atoms: _155  and  _157
REMARK   50  A    between atoms: _157  and  _158
REMARK   51  A    between atoms: _157  and  _160
REMARK   52  A    between atoms: _160  and  _161
REMARK   53  A    between atoms: _161  and  _162
REMARK   54  A    between atoms: _162  and  ZN_361
REMARK   55  A    between atoms: _164  and  _166
REMARK   56  A    between atoms: _166  and  _167
REMARK   57  A    between atoms: _166  and  _169
REMARK   58  A    between atoms: _169  and  _170
REMARK   59  A    between atoms: _170  and  _171
REMARK   60  A    between atoms: _171  and  _172
REMARK   61  A    between atoms: _181  and  _183
REMARK   62  A    between atoms: _183  and  _184
REMARK   63  A    between atoms: _183  and  _186
REMARK   64  A    between atoms: _186  and  _187
REMARK   65  A    between atoms: _187  and  _188
REMARK   66  A    between atoms: _191  and  _193
REMARK   67  A    between atoms: _193  and  _194
REMARK   68  A    between atoms: _193  and  _196
REMARK   69  A    between atoms: _196  and  _197
REMARK   70  A    between atoms: _202  and  _204
REMARK   71  A    between atoms: _204  and  _205
REMARK   72  A    between atoms: _204  and  _207
REMARK   73  A    between atoms: _207  and  _208
REMARK   74  A    between atoms: _212  and  ZN_360
REMARK   75  A    between atoms: _213  and  _215
REMARK   76  A    between atoms: _215  and  _216
REMARK   77  A    between atoms: _215  and  _218
REMARK   78  A    between atoms: _218  and  _219
REMARK   79  A    between atoms: _221  and  _223
REMARK   80  A    between atoms: _223  and  _224
REMARK   81  A    between atoms: _226  and  _228
REMARK   82  A    between atoms: _228  and  _229
REMARK   83  A    between atoms: _228  and  _231
REMARK   84  A    between atoms: _231  and  _232
REMARK   85  A    between atoms: _232  and  ZN_361
REMARK   86  A    between atoms: _233  and  _235
REMARK   87  A    between atoms: _235  and  _236
REMARK   88  A    between atoms: _239  and  _241
REMARK   89  A    between atoms: _241  and  _242
REMARK   90  A    between atoms: _241  and  _244
REMARK   91  A    between atoms: _244  and  _245
REMARK   92  A    between atoms: _250  and  _251
REMARK   93  A    between atoms: _253  and  _255
REMARK   94  A    between atoms: _255  and  _256
REMARK   95  A    between atoms: _255  and  _258
REMARK   96  A    between atoms: _258  and  _259
REMARK   97  A    between atoms: _259  and  _260
REMARK   98  A    between atoms: _263  and  _265
REMARK   99  A    between atoms: _265  and  _266
REMARK  100  A    between atoms: _265  and  _268
REMARK  101  A    between atoms: _268  and  _269
REMARK  102  A    between atoms: _269  and  _270
REMARK  103  A    between atoms: _270  and  _271
REMARK  104  A    between atoms: _280  and  _282
REMARK  105  A    between atoms: _282  and  _283
REMARK  106  A    between atoms: _282  and  _285
REMARK  107  A    between atoms: _285  and  _286
REMARK  108  A    between atoms: _288  and  _290
REMARK  109  A    between atoms: _290  and  _291
REMARK  110  A    between atoms: _294  and  _296
REMARK  111  A    between atoms: _296  and  _297
REMARK  112  A    between atoms: _299  and  _301
REMARK  113  A    between atoms: _301  and  _302
REMARK  114  A    between atoms: _301  and  _304
REMARK  115  A    between atoms: _304  and  _305
REMARK  116  A    between atoms: _310  and  _312
REMARK  117  A    between atoms: _312  and  _313
REMARK  118  A    between atoms: _312  and  _315
REMARK  119  A    between atoms: _318  and  _320
REMARK  120  A    between atoms: _320  and  _321
REMARK  121  A    between atoms: _324  and  _326
REMARK  122  A    between atoms: _326  and  _327
REMARK  123  A    between atoms: _326  and  _329
REMARK  124  A    between atoms: _329  and  _330
REMARK  125  A    between atoms: _333  and  _335
REMARK  126  A    between atoms: _335  and  _336
REMARK  127  A    between atoms: _339  and  _341
REMARK  128  A    between atoms: _341  and  _342
REMARK  129  A    between atoms: _344  and  _346
REMARK  130  A    between atoms: _346  and  _347
REMARK  131  A    between atoms: _346  and  _349
REMARK  132  A    between atoms: _349  and  _350
REMARK  133  A    between atoms: _354  and  ZN_361
REMARK  134  A    between atoms: _355  and  _357
REMARK  135  A    between atoms: _357  and  _358
REMARK                            x       y       z     vdW  Elec       q    Type
REMARK                         _______ _______ _______ _____ _____    ______ ____
ROOT
ATOM      1  CB  ASN A   1      27.566  20.529 111.702  0.00  0.00    +0.110 C 
ENDROOT
BRANCH   1   2
ATOM      2  CG  ASN A   1      27.435  19.273 110.845  0.00  0.00    +0.221 C 
ATOM      3  OD1 ASN A   1      26.371  18.664 110.760  0.00  0.00    -0.275 OA
ATOM      4  ND2 ASN A   1      28.528  18.883 110.213  0.00  0.00    -0.329 N 
ATOM      5 HD21 ASN A   1      29.408  19.428 110.312  0.00  0.00    +0.145 HD
ATOM      6 HD22 ASN A   1      28.508  18.031 109.616  0.00  0.00    +0.145 HD
ENDBRANCH   1   2
BRANCH   1   7
ATOM      7  CA  ASN A   1      26.247  20.947 112.354  0.00  0.00    +0.142 C 
BRANCH   7   8
ATOM      8  N   ASN A   1      25.287  21.387 111.344  0.00  0.00    -0.239 NA
ATOM      9  H   ASN A   1      25.634  21.719 110.422  0.00  0.00    +0.142 HD
ENDBRANCH   7   8
BRANCH   7  10
ATOM     10  C   ASN A   1      26.514  22.104 113.316  0.00  0.00    +0.225 C 
ATOM     11  O   ASN A   1      25.994  23.203 113.133  0.00  0.00    -0.287 OA
ENDBRANCH   7  10
ENDBRANCH   1   7
TORSDOF 4
REMARK  Name = ../refined-set-2016/2yz3/2yz3_pocket.pdb
REMARK  135 active torsions:
REMARK  status: ('A' for Active; 'I' for Inactive)
REMARK    1  A    between atoms: _1  and  _3
REMARK    2  A    between atoms: _3  and  _4
REMARK    3  A    between atoms: _3  and  _6
REMARK    4  A    between atoms: _6  and  _7
REMARK    5  A    between atoms: _7  and  _8
REMARK    6  A    between atoms: _13  and  _15
REMARK    7  A    between atoms: _15  and  _16
REMARK    8  A    between atoms: _15  and  _18
REMARK    9  A    between atoms: _18  and  _19
REMARK   10  A    between atoms: _21  and  _23
REMARK   11  A    between atoms: _23  and  _24
REMARK   12  A    between atoms: _23  and  _26
REMARK   13  A    between atoms: _26  and  _27
REMARK   14  A    between atoms: _33  and  _35
REMARK   15  A    between atoms: _35  and  _36
REMARK   16  A    between atoms: _35  and  _38
REMARK   17  A    between atoms: _38  and  _39
REMARK   18  A    between atoms: _42  and  _44
REMARK   19  A    between atoms: _44  and  _45
REMARK   20  A    between atoms: _48  and  _50
REMARK   21  A    between atoms: _50  and  _51
REMARK   22  A    between atoms: _50  and  _53
REMARK   23  A    between atoms: _56  and  _58
REMARK   24  A    between atoms: _58  and  _59
REMARK   25  A    between atoms: _58  and  _61
REMARK   26  A    between atoms: _61  and  _62
REMARK   27  A    between atoms: _67  and  _68
REMARK   28  A    between atoms: _71  and  _72
REMARK   29  A    between atoms: _77  and  _79
REMARK   30  A    between atoms: _79  and  _80
REMARK   31  A    between atoms: _79  and  _82
REMARK   32  A    between atoms: _82  and  _83
REMARK   33  A    between atoms: _85  and  _87
REMARK   34  A    between atoms: _87  and  _88
REMARK   35  A    between atoms: _87  and  _90
REMARK   36  A    between atoms: _90  and  _91
REMARK   37  A    between atoms: _96  and  _98
REMARK   38  A    between atoms: _98  and  _99
REMARK   39  A    between atoms: _98  and  _101
REMARK   40  A    between atoms: _101  and  _102
REMARK   41  A    between atoms: _112  and  _114
REMARK   42  A    between atoms: _125  and  _128
REMARK   43  A    between atoms: _128  and  _129
REMARK   44  A    between atoms: _137  and  _138
REMARK   45  A    between atoms: _146  and  _148
REMARK   46  A    between atoms: _148  and  _149
REMARK   47  A    between atoms: _148  and  _151
REMARK   48  A    between atoms: _151  and  _152
REMARK   49  A    between atoms: _155  and  _157
REMARK   50  A    between atoms: _157  and  _158
REMARK   51  A    between atoms: _157  and  _160
REMARK   52  A    between atoms: _160  and  _161
REMARK   53  A    between atoms: _161  and  _162
REMARK   54  A    between atoms: _162  and  ZN_361
REMARK   55  A    between atoms: _164  and  _166
REMARK   56  A    between atoms: _166  and  _167
REMARK   57  A    between atoms: _166  and  _169
REMARK   58  A    between atoms: _169  and  _170
REMARK   59  A    between atoms: _170  and  _171
REMARK   60  A    between atoms: _171  and  _172
REMARK   61  A    between atoms: _181  and  _183
REMARK   62  A    between atoms: _183  and  _184
REMARK   63  A    between atoms: _183  and  _186
REMARK   64  A    between atoms: _186  and  _187
REMARK   65  A    between atoms: _187  and  _188
REMARK   66  A    between atoms: _191  and  _193
REMARK   67  A    between atoms: _193  and  _194
REMARK   68  A    between atoms: _193  and  _196
REMARK   69  A    between atoms: _196  and  _197
REMARK   70  A    between atoms: _202  and  _204
REMARK   71  A    between atoms: _204  and  _205
REMARK   72  A    between atoms: _204  and  _207
REMARK   73  A    between atoms: _207  and  _208
REMARK   74  A    between atoms: _212  and  ZN_360
REMARK   75  A    between atoms: _213  and  _215
REMARK   76  A    between atoms: _215  and  _216
REMARK   77  A    between atoms: _215  and  _218
REMARK   78  A    between atoms: _218  and  _219
REMARK   79  A    between atoms: _221  and  _223
REMARK   80  A    between atoms: _223  and  _224
REMARK   81  A    between atoms: _226  and  _228
REMARK   82  A    between atoms: _228  and  _229
REMARK   83  A    between atoms: _228  and  _231
REMARK   84  A    between atoms: _231  and  _232
REMARK   85  A    between atoms: _232  and  ZN_361
REMARK   86  A    between atoms: _233  and  _235
REMARK   87  A    between atoms: _235  and  _236
REMARK   88  A    between atoms: _239  and  _241
REMARK   89  A    between atoms: _241  and  _242
REMARK   90  A    between atoms: _241  and  _244
REMARK   91  A    between atoms: _244  and  _245
REMARK   92  A    between atoms: _250  and  _251
REMARK   93  A    between atoms: _253  and  _255
REMARK   94  A    between atoms: _255  and  _256
REMARK   95  A    between atoms: _255  and  _258
REMARK   96  A    between atoms: _258  and  _259
REMARK   97  A    between atoms: _259  and  _260
REMARK   98  A    between atoms: _263  and  _265
REMARK   99  A    between atoms: _265  and  _266
REMARK  100  A    between atoms: _265  and  _268
REMARK  101  A    between atoms: _268  and  _269
REMARK  102  A    between atoms: _269  and  _270
REMARK  103  A    between atoms: _270  and  _271
REMARK  104  A    between atoms: _280  and  _282
REMARK  105  A    between atoms: _282  and  _283
REMARK  106  A    between atoms: _282  and  _285
REMARK  107  A    between atoms: _285  and  _286
REMARK  108  A    between atoms: _288  and  _290
REMARK  109  A    between atoms: _290  and  _291
REMARK  110  A    between atoms: _294  and  _296
REMARK  111  A    between atoms: _296  and  _297
REMARK  112  A    between atoms: _299  and  _301
REMARK  113  A    between atoms: _301  and  _302
REMARK  114  A    between atoms: _301  and  _304
REMARK  115  A    between atoms: _304  and  _305
REMARK  116  A    between atoms: _310  and  _312
REMARK  117  A    between atoms: _312  and  _313
REMARK  118  A    between atoms: _312  and  _315
REMARK  119  A    between atoms: _318  and  _320
REMARK  120  A    between atoms: _320  and  _321
REMARK  121  A    between atoms: _324  and  _326
REMARK  122  A    between atoms: _326  and  _327
REMARK  123  A    between atoms: _326  and  _329
REMARK  124  A    between atoms: _329  and  _330
REMARK  125  A    between atoms: _333  and  _335
REMARK  126  A    between atoms: _335  and  _336
REMARK  127  A    between atoms: _339  and  _341
REMARK  128  A    between atoms: _341  and  _342
REMARK  129  A    between atoms: _344  and  _346
REMARK  130  A    between atoms: _346  and  _347
REMARK  131  A    between atoms: _346  and  _349
REMARK  132  A    between atoms: _349  and  _350
REMARK  133  A    between atoms: _354  and  ZN_361
REMARK  134  A    between atoms: _355  and  _357
REMARK  135  A    between atoms: _357  and  _358
REMARK                            x       y       z     vdW  Elec       q    Type
REMARK                         _______ _______ _______ _____ _____    ______ ____
ROOT
ATOM      1  CA  TYR A   1      44.069   8.435 104.841  0.00  0.00    +0.149 C 
ENDROOT
BRANCH   1   2
ATOM      2  C   TYR A   1      45.205   7.666 105.503  0.00  0.00    +0.239 C 
ATOM      3  N   GLU A   2      44.867   6.807 106.462  0.00  0.00    -0.298 N 
ATOM      4  H   GLU A   2      43.872   6.714 106.749  0.00  0.00    +0.150 HD
ATOM      5  O   TYR A   1      46.368   7.834 105.141  0.00  0.00    -0.274 OA
BRANCH   3   6
ATOM      6  CA  GLU A   2      45.889   5.997 107.110  0.00  0.00    +0.137 C 
BRANCH   6   7
ATOM      7  C   GLU A   2      46.335   4.946 106.085  0.00  0.00    +0.227 C 
ATOM      8  O   GLU A   2      45.658   4.731 105.075  0.00  0.00    -0.286 OA
ENDBRANCH   6   7
BRANCH   6   9
ATOM      9  CB  GLU A   2      45.338   5.309 108.361  0.00  0.00    +0.039 C 
BRANCH   9  10
ATOM     10  CG  GLU A   2      44.206   4.322 108.099  0.00  0.00    +0.116 C 
BRANCH  10  11
ATOM     11  CD  GLU A   2      43.944   3.406 109.287  0.00  0.00    +0.365 C 
ATOM     12  OE2 GLU A   2      44.889   3.119 110.058  0.00  0.00    -0.246 OA
ATOM     13  OE1 GLU A   2      42.785   2.965 109.439  0.00  0.00    -0.246 OA
ENDBRANCH  10  11
ENDBRANCH   9  10
ENDBRANCH   6   9
ENDBRANCH   3   6
ENDBRANCH   1   2
BRANCH   1  14
ATOM     14  N   TYR A   1      44.463   9.777 104.397  0.00  0.00    -0.238 NA
ATOM     15  H   TYR A   1      44.972   9.873 103.495  0.00  0.00    +0.142 HD
ENDBRANCH   1  14
BRANCH   1  16
ATOM     16  CB  TYR A   1      43.597   7.585 103.660  0.00  0.00    +0.053 C 
BRANCH  16  17
ATOM     17  CG  TYR A   1      42.246   7.920 103.082  0.00  0.00    -0.020 A 
ATOM     18  CD2 TYR A   1      41.580   9.097 103.415  0.00  0.00    -0.001 A 
ATOM     19  CE2 TYR A   1      40.339   9.401 102.858  0.00  0.00    +0.036 A 
ATOM     20  CZ  TYR A   1      39.758   8.519 101.962  0.00  0.00    +0.134 A 
ATOM     21  CE1 TYR A   1      40.403   7.345 101.618  0.00  0.00    +0.036 A 
ATOM     22  CD1 TYR A   1      41.636   7.052 102.178  0.00  0.00    -0.001 A 
BRANCH  20  23
ATOM     23  OH  TYR A   1      38.530   8.811 101.412  0.00  0.00    -0.506 OA
ATOM     24  HH  TYR A   1      38.263   8.082 100.798  0.00  0.00    +0.292 HD
ENDBRANCH  20  23
ENDBRANCH  16  17
ENDBRANCH   1  16
TORSDOF 10
REMARK  Name = ../refined-set-2016/2yz3/2yz3_pocket.pdb
REMARK  135 active torsions:
REMARK  status: ('A' for Active; 'I' for Inactive)
REMARK    1  A    between atoms: _1  and  _3
REMARK    2  A    between atoms: _3  and  _4
REMARK    3  A    between atoms: _3  and  _6
REMARK    4  A    between atoms: _6  and  _7
REMARK    5  A    between atoms: _7  and  _8
REMARK    6  A    between atoms: _13  and  _15
REMARK    7  A    between atoms: _15  and  _16
REMARK    8  A    between atoms: _15  and  _18
REMARK    9  A    between atoms: _18  and  _19
REMARK   10  A    between atoms: _21  and  _23
REMARK   11  A    between atoms: _23  and  _24
REMARK   12  A    between atoms: _23  and  _26
REMARK   13  A    between atoms: _26  and  _27
REMARK   14  A    between atoms: _33  and  _35
REMARK   15  A    between atoms: _35  and  _36
REMARK   16  A    between atoms: _35  and  _38
REMARK   17  A    between atoms: _38  and  _39
REMARK   18  A    between atoms: _42  and  _44
REMARK   19  A    between atoms: _44  and  _45
REMARK   20  A    between atoms: _48  and  _50
REMARK   21  A    between atoms: _50  and  _51
REMARK   22  A    between atoms: _50  and  _53
REMARK   23  A    between atoms: _56  and  _58
REMARK   24  A    between atoms: _58  and  _59
REMARK   25  A    between atoms: _58  and  _61
REMARK   26  A    between atoms: _61  and  _62
REMARK   27  A    between atoms: _67  and  _68
REMARK   28  A    between atoms: _71  and  _72
REMARK   29  A    between atoms: _77  and  _79
REMARK   30  A    between atoms: _79  and  _80
REMARK   31  A    between atoms: _79  and  _82
REMARK   32  A    between atoms: _82  and  _83
REMARK   33  A    between atoms: _85  and  _87
REMARK   34  A    between atoms: _87  and  _88
REMARK   35  A    between atoms: _87  and  _90
REMARK   36  A    between atoms: _90  and  _91
REMARK   37  A    between atoms: _96  and  _98
REMARK   38  A    between atoms: _98  and  _99
REMARK   39  A    between atoms: _98  and  _101
REMARK   40  A    between atoms: _101  and  _102
REMARK   41  A    between atoms: _112  and  _114
REMARK   42  A    between atoms: _125  and  _128
REMARK   43  A    between atoms: _128  and  _129
REMARK   44  A    between atoms: _137  and  _138
REMARK   45  A    between atoms: _146  and  _148
REMARK   46  A    between atoms: _148  and  _149
REMARK   47  A    between atoms: _148  and  _151
REMARK   48  A    between atoms: _151  and  _152
REMARK   49  A    between atoms: _155  and  _157
REMARK   50  A    between atoms: _157  and  _158
REMARK   51  A    between atoms: _157  and  _160
REMARK   52  A    between atoms: _160  and  _161
REMARK   53  A    between atoms: _161  and  _162
REMARK   54  A    between atoms: _162  and  ZN_361
REMARK   55  A    between atoms: _164  and  _166
REMARK   56  A    between atoms: _166  and  _167
REMARK   57  A    between atoms: _166  and  _169
REMARK   58  A    between atoms: _169  and  _170
REMARK   59  A    between atoms: _170  and  _171
REMARK   60  A    between atoms: _171  and  _172
REMARK   61  A    between atoms: _181  and  _183
REMARK   62  A    between atoms: _183  and  _184
REMARK   63  A    between atoms: _183  and  _186
REMARK   64  A    between atoms: _186  and  _187
REMARK   65  A    between atoms: _187  and  _188
REMARK   66  A    between atoms: _191  and  _193
REMARK   67  A    between atoms: _193  and  _194
REMARK   68  A    between atoms: _193  and  _196
REMARK   69  A    between atoms: _196  and  _197
REMARK   70  A    between atoms: _202  and  _204
REMARK   71  A    between atoms: _204  and  _205
REMARK   72  A    between atoms: _204  and  _207
REMARK   73  A    between atoms: _207  and  _208
REMARK   74  A    between atoms: _212  and  ZN_360
REMARK   75  A    between atoms: _213  and  _215
REMARK   76  A    between atoms: _215  and  _216
REMARK   77  A    between atoms: _215  and  _218
REMARK   78  A    between atoms: _218  and  _219
REMARK   79  A    between atoms: _221  and  _223
REMARK   80  A    between atoms: _223  and  _224
REMARK   81  A    between atoms: _226  and  _228
REMARK   82  A    between atoms: _228  and  _229
REMARK   83  A    between atoms: _228  and  _231
REMARK   84  A    between atoms: _231  and  _232
REMARK   85  A    between atoms: _232  and  ZN_361
REMARK   86  A    between atoms: _233  and  _235
REMARK   87  A    between atoms: _235  and  _236
REMARK   88  A    between atoms: _239  and  _241
REMARK   89  A    between atoms: _241  and  _242
REMARK   90  A    between atoms: _241  and  _244
REMARK   91  A    between atoms: _244  and  _245
REMARK   92  A    between atoms: _250  and  _251
REMARK   93  A    between atoms: _253  and  _255
REMARK   94  A    between atoms: _255  and  _256
REMARK   95  A    between atoms: _255  and  _258
REMARK   96  A    between atoms: _258  and  _259
REMARK   97  A    between atoms: _259  and  _260
REMARK   98  A    between atoms: _263  and  _265
REMARK   99  A    between atoms: _265  and  _266
REMARK  100  A    between atoms: _265  and  _268
REMARK  101  A    between atoms: _268  and  _269
REMARK  102  A    between atoms: _269  and  _270
REMARK  103  A    between atoms: _270  and  _271
REMARK  104  A    between atoms: _280  and  _282
REMARK  105  A    between atoms: _282  and  _283
REMARK  106  A    between atoms: _282  and  _285
REMARK  107  A    between atoms: _285  and  _286
REMARK  108  A    between atoms: _288  and  _290
REMARK  109  A    between atoms: _290  and  _291
REMARK  110  A    between atoms: _294  and  _296
REMARK  111  A    between atoms: _296  and  _297
REMARK  112  A    between atoms: _299  and  _301
REMARK  113  A    between atoms: _301  and  _302
REMARK  114  A    between atoms: _301  and  _304
REMARK  115  A    between atoms: _304  and  _305
REMARK  116  A    between atoms: _310  and  _312
REMARK  117  A    between atoms: _312  and  _313
REMARK  118  A    between atoms: _312  and  _315
REMARK  119  A    between atoms: _318  and  _320
REMARK  120  A    between atoms: _320  and  _321
REMARK  121  A    between atoms: _324  and  _326
REMARK  122  A    between atoms: _326  and  _327
REMARK  123  A    between atoms: _326  and  _329
REMARK  124  A    between atoms: _329  and  _330
REMARK  125  A    between atoms: _333  and  _335
REMARK  126  A    between atoms: _335  and  _336
REMARK  127  A    between atoms: _339  and  _341
REMARK  128  A    between atoms: _341  and  _342
REMARK  129  A    between atoms: _344  and  _346
REMARK  130  A    between atoms: _346  and  _347
REMARK  131  A    between atoms: _346  and  _349
REMARK  132  A    between atoms: _349  and  _350
REMARK  133  A    between atoms: _354  and  ZN_361
REMARK  134  A    between atoms: _355  and  _357
REMARK  135  A    between atoms: _357  and  _358
REMARK                            x       y       z     vdW  Elec       q    Type
REMARK                         _______ _______ _______ _____ _____    ______ ____
ROOT
ATOM      1  NE  ARG A   1      39.230   5.570 104.286  0.00  0.00    -0.265 N 
ATOM      2  CZ  ARG A   1      38.618   6.683 104.683  0.00  0.00    +0.342 C 
ATOM      3  NH2 ARG A   1      39.163   7.434 105.635  0.00  0.00    -0.292 N 
ATOM      4 HH21 ARG A   1      40.065   7.151 106.068  0.00  0.00    +0.255 HD
ATOM      5 HH22 ARG A   1      38.687   8.304 105.947  0.00  0.00    +0.255 HD
ATOM      6  NH1 ARG A   1      37.459   7.043 104.129  0.00  0.00    -0.292 N 
ATOM      7 HH11 ARG A   1      36.982   7.913 104.440  0.00  0.00    +0.255 HD
ATOM      8 HH12 ARG A   1      37.033   6.454 103.386  0.00  0.00    +0.255 HD
ATOM      9  HE  ARG A   1      38.776   5.004 103.541  0.00  0.00    +0.259 HD
ENDROOT
BRANCH   1  10
ATOM     10  CD  ARG A   1      40.499   5.091 104.829  0.00  0.00    +0.174 C 
BRANCH  10  11
ATOM     11  CG  ARG A   1      40.910   3.762 104.220  0.00  0.00    +0.045 C 
BRANCH  11  12
ATOM     12  CB  ARG A   1      42.319   3.402 104.662  0.00  0.00    +0.029 C 
BRANCH  12  13
ATOM     13  CA  ARG A   1      42.800   2.006 104.261  0.00  0.00    +0.133 C 
BRANCH  13  14
ATOM     14  N   ARG A   1      44.044   1.704 104.967  0.00  0.00    -0.239 NA
ATOM     15  H   ARG A   1      44.628   2.484 105.331  0.00  0.00    +0.142 HD
ENDBRANCH  13  14
BRANCH  13  16
ATOM     16  C   ARG A   1      43.045   1.927 102.752  0.00  0.00    +0.224 C 
ATOM     17  O   ARG A   1      43.813   2.716 102.203  0.00  0.00    -0.287 OA
ENDBRANCH  13  16
ENDBRANCH  12  13
ENDBRANCH  11  12
ENDBRANCH  10  11
ENDBRANCH   1  10
TORSDOF 6
REMARK  Name = ../refined-set-2016/2yz3/2yz3_pocket.pdb
REMARK  135 active torsions:
REMARK  status: ('A' for Active; 'I' for Inactive)
REMARK    1  A    between atoms: _1  and  _3
REMARK    2  A    between atoms: _3  and  _4
REMARK    3  A    between atoms: _3  and  _6
REMARK    4  A    between atoms: _6  and  _7
REMARK    5  A    between atoms: _7  and  _8
REMARK    6  A    between atoms: _13  and  _15
REMARK    7  A    between atoms: _15  and  _16
REMARK    8  A    between atoms: _15  and  _18
REMARK    9  A    between atoms: _18  and  _19
REMARK   10  A    between atoms: _21  and  _23
REMARK   11  A    between atoms: _23  and  _24
REMARK   12  A    between atoms: _23  and  _26
REMARK   13  A    between atoms: _26  and  _27
REMARK   14  A    between atoms: _33  and  _35
REMARK   15  A    between atoms: _35  and  _36
REMARK   16  A    between atoms: _35  and  _38
REMARK   17  A    between atoms: _38  and  _39
REMARK   18  A    between atoms: _42  and  _44
REMARK   19  A    between atoms: _44  and  _45
REMARK   20  A    between atoms: _48  and  _50
REMARK   21  A    between atoms: _50  and  _51
REMARK   22  A    between atoms: _50  and  _53
REMARK   23  A    between atoms: _56  and  _58
REMARK   24  A    between atoms: _58  and  _59
REMARK   25  A    between atoms: _58  and  _61
REMARK   26  A    between atoms: _61  and  _62
REMARK   27  A    between atoms: _67  and  _68
REMARK   28  A    between atoms: _71  and  _72
REMARK   29  A    between atoms: _77  and  _79
REMARK   30  A    between atoms: _79  and  _80
REMARK   31  A    between atoms: _79  and  _82
REMARK   32  A    between atoms: _82  and  _83
REMARK   33  A    between atoms: _85  and  _87
REMARK   34  A    between atoms: _87  and  _88
REMARK   35  A    between atoms: _87  and  _90
REMARK   36  A    between atoms: _90  and  _91
REMARK   37  A    between atoms: _96  and  _98
REMARK   38  A    between atoms: _98  and  _99
REMARK   39  A    between atoms: _98  and  _101
REMARK   40  A    between atoms: _101  and  _102
REMARK   41  A    between atoms: _112  and  _114
REMARK   42  A    between atoms: _125  and  _128
REMARK   43  A    between atoms: _128  and  _129
REMARK   44  A    between atoms: _137  and  _138
REMARK   45  A    between atoms: _146  and  _148
REMARK   46  A    between atoms: _148  and  _149
REMARK   47  A    between atoms: _148  and  _151
REMARK   48  A    between atoms: _151  and  _152
REMARK   49  A    between atoms: _155  and  _157
REMARK   50  A    between atoms: _157  and  _158
REMARK   51  A    between atoms: _157  and  _160
REMARK   52  A    between atoms: _160  and  _161
REMARK   53  A    between atoms: _161  and  _162
REMARK   54  A    between atoms: _162  and  ZN_361
REMARK   55  A    between atoms: _164  and  _166
REMARK   56  A    between atoms: _166  and  _167
REMARK   57  A    between atoms: _166  and  _169
REMARK   58  A    between atoms: _169  and  _170
REMARK   59  A    between atoms: _170  and  _171
REMARK   60  A    between atoms: _171  and  _172
REMARK   61  A    between atoms: _181  and  _183
REMARK   62  A    between atoms: _183  and  _184
REMARK   63  A    between atoms: _183  and  _186
REMARK   64  A    between atoms: _186  and  _187
REMARK   65  A    between atoms: _187  and  _188
REMARK   66  A    between atoms: _191  and  _193
REMARK   67  A    between atoms: _193  and  _194
REMARK   68  A    between atoms: _193  and  _196
REMARK   69  A    between atoms: _196  and  _197
REMARK   70  A    between atoms: _202  and  _204
REMARK   71  A    between atoms: _204  and  _205
REMARK   72  A    between atoms: _204  and  _207
REMARK   73  A    between atoms: _207  and  _208
REMARK   74  A    between atoms: _212  and  ZN_360
REMARK   75  A    between atoms: _213  and  _215
REMARK   76  A    between atoms: _215  and  _216
REMARK   77  A    between atoms: _215  and  _218
REMARK   78  A    between atoms: _218  and  _219
REMARK   79  A    between atoms: _221  and  _223
REMARK   80  A    between atoms: _223  and  _224
REMARK   81  A    between atoms: _226  and  _228
REMARK   82  A    between atoms: _228  and  _229
REMARK   83  A    between atoms: _228  and  _231
REMARK   84  A    between atoms: _231  and  _232
REMARK   85  A    between atoms: _232  and  ZN_361
REMARK   86  A    between atoms: _233  and  _235
REMARK   87  A    between atoms: _235  and  _236
REMARK   88  A    between atoms: _239  and  _241
REMARK   89  A    between atoms: _241  and  _242
REMARK   90  A    between atoms: _241  and  _244
REMARK   91  A    between atoms: _244  and  _245
REMARK   92  A    between atoms: _250  and  _251
REMARK   93  A    between atoms: _253  and  _255
REMARK   94  A    between atoms: _255  and  _256
REMARK   95  A    between atoms: _255  and  _258
REMARK   96  A    between atoms: _258  and  _259
REMARK   97  A    between atoms: _259  and  _260
REMARK   98  A    between atoms: _263  and  _265
REMARK   99  A    between atoms: _265  and  _266
REMARK  100  A    between atoms: _265  and  _268
REMARK  101  A    between atoms: _268  and  _269
REMARK  102  A    between atoms: _269  and  _270
REMARK  103  A    between atoms: _270  and  _271
REMARK  104  A    between atoms: _280  and  _282
REMARK  105  A    between atoms: _282  and  _283
REMARK  106  A    between atoms: _282  and  _285
REMARK  107  A    between atoms: _285  and  _286
REMARK  108  A    between atoms: _288  and  _290
REMARK  109  A    between atoms: _290  and  _291
REMARK  110  A    between atoms: _294  and  _296
REMARK  111  A    between atoms: _296  and  _297
REMARK  112  A    between atoms: _299  and  _301
REMARK  113  A    between atoms: _301  and  _302
REMARK  114  A    between atoms: _301  and  _304
REMARK  115  A    between atoms: _304  and  _305
REMARK  116  A    between atoms: _310  and  _312
REMARK  117  A    between atoms: _312  and  _313
REMARK  118  A    between atoms: _312  and  _315
REMARK  119  A    between atoms: _318  and  _320
REMARK  120  A    between atoms: _320  and  _321
REMARK  121  A    between atoms: _324  and  _326
REMARK  122  A    between atoms: _326  and  _327
REMARK  123  A    between atoms: _326  and  _329
REMARK  124  A    between atoms: _329  and  _330
REMARK  125  A    between atoms: _333  and  _335
REMARK  126  A    between atoms: _335  and  _336
REMARK  127  A    between atoms: _339  and  _341
REMARK  128  A    between atoms: _341  and  _342
REMARK  129  A    between atoms: _344  and  _346
REMARK  130  A    between atoms: _346  and  _347
REMARK  131  A    between atoms: _346  and  _349
REMARK  132  A    between atoms: _349  and  _350
REMARK  133  A    between atoms: _354  and  ZN_361
REMARK  134  A    between atoms: _355  and  _357
REMARK  135  A    between atoms: _357  and  _358
REMARK                            x       y       z     vdW  Elec       q    Type
REMARK                         _______ _______ _______ _____ _____    ______ ____
ROOT
ATOM      1  C   ASN A   4      33.208   9.326 101.374  0.00  0.00    +0.241 C 
ATOM      2  O   ASN A   4      34.144   9.810 101.983  0.00  0.00    -0.273 OA
ATOM      3  N   VAL A   5      32.787   9.800 100.206  0.00  0.00    -0.297 N 
ATOM      4  H   VAL A   5      31.992   9.326  99.732  0.00  0.00    +0.150 HD
ENDROOT
BRANCH   3   5
ATOM      5  CA  VAL A   5      33.395  10.959  99.562  0.00  0.00    +0.149 C 
BRANCH   5   6
ATOM      6  C   VAL A   5      32.303  11.823  98.943  0.00  0.00    +0.241 C 
ATOM      7  N   ALA A   6      31.111  11.764  99.527  0.00  0.00    -0.297 N 
ATOM      8  H   ALA A   6      30.988  11.146 100.355  0.00  0.00    +0.150 HD
ATOM      9  O   VAL A   5      32.537  12.534  97.965  0.00  0.00    -0.273 OA
BRANCH   7  10
ATOM     10  CA  ALA A   6      29.967  12.536  99.048  0.00  0.00    +0.149 C 
ATOM     11  CB  ALA A   6      28.759  12.284  99.947  0.00  0.00    +0.031 C 
BRANCH  10  12
ATOM     12  C   ALA A   6      30.274  14.031  98.994  0.00  0.00    +0.241 C 
ATOM     13  N   ASP A   7      30.980  14.525 100.009  0.00  0.00    -0.297 N 
ATOM     14  H   ASP A   7      31.287  13.877 100.762  0.00  0.00    +0.150 HD
ATOM     15  O   ALA A   6      29.887  14.714  98.045  0.00  0.00    -0.273 OA
BRANCH  13  16
ATOM     16  CA  ASP A   7      31.342  15.937 100.111  0.00  0.00    +0.160 C 
BRANCH  16  17
ATOM     17  C   ASP A   7      32.705  16.284  99.524  0.00  0.00    +0.241 C 
ATOM     18  O   ASP A   7      33.182  17.408  99.703  0.00  0.00    -0.273 OA
ATOM     19  N   ALA A   8      33.333  15.350  98.819  0.00  0.00    -0.298 N 
ATOM     20  H   ALA A   8      32.881  14.426  98.665  0.00  0.00    +0.150 HD
BRANCH  19  21
ATOM     21  CA  ALA A   8      34.653  15.614  98.260  0.00  0.00    +0.137 C 
ATOM     22  CB  ALA A   8      35.514  14.377  98.403  0.00  0.00    +0.030 C 
BRANCH  21  23
ATOM     23  C   ALA A   8      34.682  16.086  96.807  0.00  0.00    +0.227 C 
ATOM     24  O   ALA A   8      33.664  16.081  96.108  0.00  0.00    -0.286 OA
ENDBRANCH  21  23
ENDBRANCH  19  21
ENDBRANCH  16  17
BRANCH  16  25
ATOM     25  CB  ASP A   7      31.331  16.388 101.580  0.00  0.00    +0.143 C 
BRANCH  25  26
ATOM     26  CG  ASP A   7      29.934  16.489 102.156  0.00  0.00    +0.367 C 
ATOM     27  OD2 ASP A   7      29.687  15.896 103.228  0.00  0.00    -0.246 OA
ATOM     28  OD1 ASP A   7      29.087  17.172 101.543  0.00  0.00    -0.246 OA
ENDBRANCH  25  26
ENDBRANCH  16  25
ENDBRANCH  13  16
ENDBRANCH  10  12
ENDBRANCH   7  10
ENDBRANCH   5   6
BRANCH   5  29
ATOM     29  CB  VAL A   5      34.396  10.548  98.445  0.00  0.00    +0.027 C 
ATOM     30  CG2 VAL A   5      35.608   9.854  99.053  0.00  0.00    +0.002 C 
ATOM     31  CG1 VAL A   5      33.712   9.624  97.437  0.00  0.00    +0.002 C 
ENDBRANCH   5  29
ENDBRANCH   3   5
BRANCH   1  32
ATOM     32  CA  ASN A   4      32.467   8.111 101.922  0.00  0.00    +0.158 C 
BRANCH  32  34
ATOM     33  C   GLY A   3      33.786   6.231 101.107  0.00  0.00    +0.243 C 
ATOM     34  N   ASN A   4      33.365   6.981 102.118  0.00  0.00    -0.297 N 
ATOM     35  H   ASN A   4      33.687   6.755 103.081  0.00  0.00    +0.150 HD
ATOM     36  O   GLY A   3      33.481   6.456  99.938  0.00  0.00    -0.273 OA
BRANCH  33  37
ATOM     37  CA  GLY A   3      34.695   5.072 101.440  0.00  0.00    +0.176 C 
BRANCH  37  40
ATOM     38  C   ALA A   2      36.682   5.792 100.312  0.00  0.00    +0.241 C 
ATOM     39  O   ALA A   2      36.795   6.741 101.093  0.00  0.00    -0.273 OA
ATOM     40  N   GLY A   3      35.691   4.915 100.398  0.00  0.00    -0.295 N 
ATOM     41  H   GLY A   3      35.629   4.124  99.726  0.00  0.00    +0.150 HD
BRANCH  38  42
ATOM     42  CA  ALA A   2      37.690   5.583  99.185  0.00  0.00    +0.149 C 
ATOM     43  CB  ALA A   2      37.125   6.122  97.887  0.00  0.00    +0.031 C 
BRANCH  42  46
ATOM     44  C   SER A   1      38.786   3.527  99.929  0.00  0.00    +0.241 C 
ATOM     45  O   SER A   1      39.117   4.022 101.013  0.00  0.00    -0.274 OA
ATOM     46  N   ALA A   2      38.095   4.191  99.005  0.00  0.00    -0.297 N 
ATOM     47  H   ALA A   2      37.835   3.702  98.125  0.00  0.00    +0.150 HD
BRANCH  44  48
ATOM     48  CA  SER A   1      39.154   2.083  99.588  0.00  0.00    +0.174 C 
BRANCH  48  49
ATOM     49  N   SER A   1      40.328   1.679 100.353  0.00  0.00    -0.236 NA
ATOM     50  H   SER A   1      40.328   1.793 101.387  0.00  0.00    +0.142 HD
ENDBRANCH  48  49
BRANCH  48  51
ATOM     51  CB  SER A   1      37.977   1.146  99.886  0.00  0.00    +0.163 C 
BRANCH  51  52
ATOM     52  OG  SER A   1      37.683   1.107 101.271  0.00  0.00    -0.380 OA
ATOM     53  H   SER A   1      38.476   0.782 101.767  0.00  0.00    +0.211 HD
ENDBRANCH  51  52
ENDBRANCH  48  51
ENDBRANCH  44  48
ENDBRANCH  42  46
ENDBRANCH  38  42
ENDBRANCH  37  40
ENDBRANCH  33  37
ENDBRANCH  32  34
BRANCH  32  54
ATOM     54  CB  ASN A   4      31.801   8.467 103.245  0.00  0.00    +0.114 C 
BRANCH  54  55
ATOM     55  CG  ASN A   4      30.640   9.432 103.083  0.00  0.00    +0.222 C 
ATOM     56  OD1 ASN A   4      29.484   9.040 103.153  0.00  0.00    -0.275 OA
ATOM     57  ND2 ASN A   4      30.946  10.700 102.879  0.00  0.00    -0.329 N 
ATOM     58 HD21 ASN A   4      31.943  10.992 102.826  0.00  0.00    +0.145 HD
ATOM     59 HD22 ASN A   4      30.190  11.406 102.771  0.00  0.00    +0.145 HD
ENDBRANCH  54  55
ENDBRANCH  32  54
ENDBRANCH   1  32
TORSDOF 23
REMARK  Name = ../refined-set-2016/2yz3/2yz3_pocket.pdb
REMARK  135 active torsions:
REMARK  status: ('A' for Active; 'I' for Inactive)
REMARK    1  A    between atoms: _1  and  _3
REMARK    2  A    between atoms: _3  and  _4
REMARK    3  A    between atoms: _3  and  _6
REMARK    4  A    between atoms: _6  and  _7
REMARK    5  A    between atoms: _7  and  _8
REMARK    6  A    between atoms: _13  and  _15
REMARK    7  A    between atoms: _15  and  _16
REMARK    8  A    between atoms: _15  and  _18
REMARK    9  A    between atoms: _18  and  _19
REMARK   10  A    between atoms: _21  and  _23
REMARK   11  A    between atoms: _23  and  _24
REMARK   12  A    between atoms: _23  and  _26
REMARK   13  A    between atoms: _26  and  _27
REMARK   14  A    between atoms: _33  and  _35
REMARK   15  A    between atoms: _35  and  _36
REMARK   16  A    between atoms: _35  and  _38
REMARK   17  A    between atoms: _38  and  _39
REMARK   18  A    between atoms: _42  and  _44
REMARK   19  A    between atoms: _44  and  _45
REMARK   20  A    between atoms: _48  and  _50
REMARK   21  A    between atoms: _50  and  _51
REMARK   22  A    between atoms: _50  and  _53
REMARK   23  A    between atoms: _56  and  _58
REMARK   24  A    between atoms: _58  and  _59
REMARK   25  A    between atoms: _58  and  _61
REMARK   26  A    between atoms: _61  and  _62
REMARK   27  A    between atoms: _67  and  _68
REMARK   28  A    between atoms: _71  and  _72
REMARK   29  A    between atoms: _77  and  _79
REMARK   30  A    between atoms: _79  and  _80
REMARK   31  A    between atoms: _79  and  _82
REMARK   32  A    between atoms: _82  and  _83
REMARK   33  A    between atoms: _85  and  _87
REMARK   34  A    between atoms: _87  and  _88
REMARK   35  A    between atoms: _87  and  _90
REMARK   36  A    between atoms: _90  and  _91
REMARK   37  A    between atoms: _96  and  _98
REMARK   38  A    between atoms: _98  and  _99
REMARK   39  A    between atoms: _98  and  _101
REMARK   40  A    between atoms: _101  and  _102
REMARK   41  A    between atoms: _112  and  _114
REMARK   42  A    between atoms: _125  and  _128
REMARK   43  A    between atoms: _128  and  _129
REMARK   44  A    between atoms: _137  and  _138
REMARK   45  A    between atoms: _146  and  _148
REMARK   46  A    between atoms: _148  and  _149
REMARK   47  A    between atoms: _148  and  _151
REMARK   48  A    between atoms: _151  and  _152
REMARK   49  A    between atoms: _155  and  _157
REMARK   50  A    between atoms: _157  and  _158
REMARK   51  A    between atoms: _157  and  _160
REMARK   52  A    between atoms: _160  and  _161
REMARK   53  A    between atoms: _161  and  _162
REMARK   54  A    between atoms: _162  and  ZN_361
REMARK   55  A    between atoms: _164  and  _166
REMARK   56  A    between atoms: _166  and  _167
REMARK   57  A    between atoms: _166  and  _169
REMARK   58  A    between atoms: _169  and  _170
REMARK   59  A    between atoms: _170  and  _171
REMARK   60  A    between atoms: _171  and  _172
REMARK   61  A    between atoms: _181  and  _183
REMARK   62  A    between atoms: _183  and  _184
REMARK   63  A    between atoms: _183  and  _186
REMARK   64  A    between atoms: _186  and  _187
REMARK   65  A    between atoms: _187  and  _188
REMARK   66  A    between atoms: _191  and  _193
REMARK   67  A    between atoms: _193  and  _194
REMARK   68  A    between atoms: _193  and  _196
REMARK   69  A    between atoms: _196  and  _197
REMARK   70  A    between atoms: _202  and  _204
REMARK   71  A    between atoms: _204  and  _205
REMARK   72  A    between atoms: _204  and  _207
REMARK   73  A    between atoms: _207  and  _208
REMARK   74  A    between atoms: _212  and  ZN_360
REMARK   75  A    between atoms: _213  and  _215
REMARK   76  A    between atoms: _215  and  _216
REMARK   77  A    between atoms: _215  and  _218
REMARK   78  A    between atoms: _218  and  _219
REMARK   79  A    between atoms: _221  and  _223
REMARK   80  A    between atoms: _223  and  _224
REMARK   81  A    between atoms: _226  and  _228
REMARK   82  A    between atoms: _228  and  _229
REMARK   83  A    between atoms: _228  and  _231
REMARK   84  A    between atoms: _231  and  _232
REMARK   85  A    between atoms: _232  and  ZN_361
REMARK   86  A    between atoms: _233  and  _235
REMARK   87  A    between atoms: _235  and  _236
REMARK   88  A    between atoms: _239  and  _241
REMARK   89  A    between atoms: _241  and  _242
REMARK   90  A    between atoms: _241  and  _244
REMARK   91  A    between atoms: _244  and  _245
REMARK   92  A    between atoms: _250  and  _251
REMARK   93  A    between atoms: _253  and  _255
REMARK   94  A    between atoms: _255  and  _256
REMARK   95  A    between atoms: _255  and  _258
REMARK   96  A    between atoms: _258  and  _259
REMARK   97  A    between atoms: _259  and  _260
REMARK   98  A    between atoms: _263  and  _265
REMARK   99  A    between atoms: _265  and  _266
REMARK  100  A    between atoms: _265  and  _268
REMARK  101  A    between atoms: _268  and  _269
REMARK  102  A    between atoms: _269  and  _270
REMARK  103  A    between atoms: _270  and  _271
REMARK  104  A    between atoms: _280  and  _282
REMARK  105  A    between atoms: _282  and  _283
REMARK  106  A    between atoms: _282  and  _285
REMARK  107  A    between atoms: _285  and  _286
REMARK  108  A    between atoms: _288  and  _290
REMARK  109  A    between atoms: _290  and  _291
REMARK  110  A    between atoms: _294  and  _296
REMARK  111  A    between atoms: _296  and  _297
REMARK  112  A    between atoms: _299  and  _301
REMARK  113  A    between atoms: _301  and  _302
REMARK  114  A    between atoms: _301  and  _304
REMARK  115  A    between atoms: _304  and  _305
REMARK  116  A    between atoms: _310  and  _312
REMARK  117  A    between atoms: _312  and  _313
REMARK  118  A    between atoms: _312  and  _315
REMARK  119  A    between atoms: _318  and  _320
REMARK  120  A    between atoms: _320  and  _321
REMARK  121  A    between atoms: _324  and  _326
REMARK  122  A    between atoms: _326  and  _327
REMARK  123  A    between atoms: _326  and  _329
REMARK  124  A    between atoms: _329  and  _330
REMARK  125  A    between atoms: _333  and  _335
REMARK  126  A    between atoms: _335  and  _336
REMARK  127  A    between atoms: _339  and  _341
REMARK  128  A    between atoms: _341  and  _342
REMARK  129  A    between atoms: _344  and  _346
REMARK  130  A    between atoms: _346  and  _347
REMARK  131  A    between atoms: _346  and  _349
REMARK  132  A    between atoms: _349  and  _350
REMARK  133  A    between atoms: _354  and  ZN_361
REMARK  134  A    between atoms: _355  and  _357
REMARK  135  A    between atoms: _357  and  _358
REMARK                            x       y       z     vdW  Elec       q    Type
REMARK                         _______ _______ _______ _____ _____    ______ ____
ROOT
ATOM      1  O   HOH     1      33.452  13.506 101.226  0.00  0.00    +0.000 OA
ENDROOT
TORSDOF 0
REMARK  Name = ../refined-set-2016/2yz3/2yz3_pocket.pdb
REMARK  135 active torsions:
REMARK  status: ('A' for Active; 'I' for Inactive)
REMARK    1  A    between atoms: _1  and  _3
REMARK    2  A    between atoms: _3  and  _4
REMARK    3  A    between atoms: _3  and  _6
REMARK    4  A    between atoms: _6  and  _7
REMARK    5  A    between atoms: _7  and  _8
REMARK    6  A    between atoms: _13  and  _15
REMARK    7  A    between atoms: _15  and  _16
REMARK    8  A    between atoms: _15  and  _18
REMARK    9  A    between atoms: _18  and  _19
REMARK   10  A    between atoms: _21  and  _23
REMARK   11  A    between atoms: _23  and  _24
REMARK   12  A    between atoms: _23  and  _26
REMARK   13  A    between atoms: _26  and  _27
REMARK   14  A    between atoms: _33  and  _35
REMARK   15  A    between atoms: _35  and  _36
REMARK   16  A    between atoms: _35  and  _38
REMARK   17  A    between atoms: _38  and  _39
REMARK   18  A    between atoms: _42  and  _44
REMARK   19  A    between atoms: _44  and  _45
REMARK   20  A    between atoms: _48  and  _50
REMARK   21  A    between atoms: _50  and  _51
REMARK   22  A    between atoms: _50  and  _53
REMARK   23  A    between atoms: _56  and  _58
REMARK   24  A    between atoms: _58  and  _59
REMARK   25  A    between atoms: _58  and  _61
REMARK   26  A    between atoms: _61  and  _62
REMARK   27  A    between atoms: _67  and  _68
REMARK   28  A    between atoms: _71  and  _72
REMARK   29  A    between atoms: _77  and  _79
REMARK   30  A    between atoms: _79  and  _80
REMARK   31  A    between atoms: _79  and  _82
REMARK   32  A    between atoms: _82  and  _83
REMARK   33  A    between atoms: _85  and  _87
REMARK   34  A    between atoms: _87  and  _88
REMARK   35  A    between atoms: _87  and  _90
REMARK   36  A    between atoms: _90  and  _91
REMARK   37  A    between atoms: _96  and  _98
REMARK   38  A    between atoms: _98  and  _99
REMARK   39  A    between atoms: _98  and  _101
REMARK   40  A    between atoms: _101  and  _102
REMARK   41  A    between atoms: _112  and  _114
REMARK   42  A    between atoms: _125  and  _128
REMARK   43  A    between atoms: _128  and  _129
REMARK   44  A    between atoms: _137  and  _138
REMARK   45  A    between atoms: _146  and  _148
REMARK   46  A    between atoms: _148  and  _149
REMARK   47  A    between atoms: _148  and  _151
REMARK   48  A    between atoms: _151  and  _152
REMARK   49  A    between atoms: _155  and  _157
REMARK   50  A    between atoms: _157  and  _158
REMARK   51  A    between atoms: _157  and  _160
REMARK   52  A    between atoms: _160  and  _161
REMARK   53  A    between atoms: _161  and  _162
REMARK   54  A    between atoms: _162  and  ZN_361
REMARK   55  A    between atoms: _164  and  _166
REMARK   56  A    between atoms: _166  and  _167
REMARK   57  A    between atoms: _166  and  _169
REMARK   58  A    between atoms: _169  and  _170
REMARK   59  A    between atoms: _170  and  _171
REMARK   60  A    between atoms: _171  and  _172
REMARK   61  A    between atoms: _181  and  _183
REMARK   62  A    between atoms: _183  and  _184
REMARK   63  A    between atoms: _183  and  _186
REMARK   64  A    between atoms: _186  and  _187
REMARK   65  A    between atoms: _187  and  _188
REMARK   66  A    between atoms: _191  and  _193
REMARK   67  A    between atoms: _193  and  _194
REMARK   68  A    between atoms: _193  and  _196
REMARK   69  A    between atoms: _196  and  _197
REMARK   70  A    between atoms: _202  and  _204
REMARK   71  A    between atoms: _204  and  _205
REMARK   72  A    between atoms: _204  and  _207
REMARK   73  A    between atoms: _207  and  _208
REMARK   74  A    between atoms: _212  and  ZN_360
REMARK   75  A    between atoms: _213  and  _215
REMARK   76  A    between atoms: _215  and  _216
REMARK   77  A    between atoms: _215  and  _218
REMARK   78  A    between atoms: _218  and  _219
REMARK   79  A    between atoms: _221  and  _223
REMARK   80  A    between atoms: _223  and  _224
REMARK   81  A    between atoms: _226  and  _228
REMARK   82  A    between atoms: _228  and  _229
REMARK   83  A    between atoms: _228  and  _231
REMARK   84  A    between atoms: _231  and  _232
REMARK   85  A    between atoms: _232  and  ZN_361
REMARK   86  A    between atoms: _233  and  _235
REMARK   87  A    between atoms: _235  and  _236
REMARK   88  A    between atoms: _239  and  _241
REMARK   89  A    between atoms: _241  and  _242
REMARK   90  A    between atoms: _241  and  _244
REMARK   91  A    between atoms: _244  and  _245
REMARK   92  A    between atoms: _250  and  _251
REMARK   93  A    between atoms: _253  and  _255
REMARK   94  A    between atoms: _255  and  _256
REMARK   95  A    between atoms: _255  and  _258
REMARK   96  A    between atoms: _258  and  _259
REMARK   97  A    between atoms: _259  and  _260
REMARK   98  A    between atoms: _263  and  _265
REMARK   99  A    between atoms: _265  and  _266
REMARK  100  A    between atoms: _265  and  _268
REMARK  101  A    between atoms: _268  and  _269
REMARK  102  A    between atoms: _269  and  _270
REMARK  103  A    between atoms: _270  and  _271
REMARK  104  A    between atoms: _280  and  _282
REMARK  105  A    between atoms: _282  and  _283
REMARK  106  A    between atoms: _282  and  _285
REMARK  107  A    between atoms: _285  and  _286
REMARK  108  A    between atoms: _288  and  _290
REMARK  109  A    between atoms: _290  and  _291
REMARK  110  A    between atoms: _294  and  _296
REMARK  111  A    between atoms: _296  and  _297
REMARK  112  A    between atoms: _299  and  _301
REMARK  113  A    between atoms: _301  and  _302
REMARK  114  A    between atoms: _301  and  _304
REMARK  115  A    between atoms: _304  and  _305
REMARK  116  A    between atoms: _310  and  _312
REMARK  117  A    between atoms: _312  and  _313
REMARK  118  A    between atoms: _312  and  _315
REMARK  119  A    between atoms: _318  and  _320
REMARK  120  A    between atoms: _320  and  _321
REMARK  121  A    between atoms: _324  and  _326
REMARK  122  A    between atoms: _326  and  _327
REMARK  123  A    between atoms: _326  and  _329
REMARK  124  A    between atoms: _329  and  _330
REMARK  125  A    between atoms: _333  and  _335
REMARK  126  A    between atoms: _335  and  _336
REMARK  127  A    between atoms: _339  and  _341
REMARK  128  A    between atoms: _341  and  _342
REMARK  129  A    between atoms: _344  and  _346
REMARK  130  A    between atoms: _346  and  _347
REMARK  131  A    between atoms: _346  and  _349
REMARK  132  A    between atoms: _349  and  _350
REMARK  133  A    between atoms: _354  and  ZN_361
REMARK  134  A    between atoms: _355  and  _357
REMARK  135  A    between atoms: _357  and  _358
REMARK                            x       y       z     vdW  Elec       q    Type
REMARK                         _______ _______ _______ _____ _____    ______ ____
ROOT
ATOM      1  O   HOH     1      40.057  17.360 108.414  0.00  0.00    +0.000 OA
ENDROOT
TORSDOF 0
REMARK  Name = ../refined-set-2016/2yz3/2yz3_pocket.pdb
REMARK  135 active torsions:
REMARK  status: ('A' for Active; 'I' for Inactive)
REMARK    1  A    between atoms: _1  and  _3
REMARK    2  A    between atoms: _3  and  _4
REMARK    3  A    between atoms: _3  and  _6
REMARK    4  A    between atoms: _6  and  _7
REMARK    5  A    between atoms: _7  and  _8
REMARK    6  A    between atoms: _13  and  _15
REMARK    7  A    between atoms: _15  and  _16
REMARK    8  A    between atoms: _15  and  _18
REMARK    9  A    between atoms: _18  and  _19
REMARK   10  A    between atoms: _21  and  _23
REMARK   11  A    between atoms: _23  and  _24
REMARK   12  A    between atoms: _23  and  _26
REMARK   13  A    between atoms: _26  and  _27
REMARK   14  A    between atoms: _33  and  _35
REMARK   15  A    between atoms: _35  and  _36
REMARK   16  A    between atoms: _35  and  _38
REMARK   17  A    between atoms: _38  and  _39
REMARK   18  A    between atoms: _42  and  _44
REMARK   19  A    between atoms: _44  and  _45
REMARK   20  A    between atoms: _48  and  _50
REMARK   21  A    between atoms: _50  and  _51
REMARK   22  A    between atoms: _50  and  _53
REMARK   23  A    between atoms: _56  and  _58
REMARK   24  A    between atoms: _58  and  _59
REMARK   25  A    between atoms: _58  and  _61
REMARK   26  A    between atoms: _61  and  _62
REMARK   27  A    between atoms: _67  and  _68
REMARK   28  A    between atoms: _71  and  _72
REMARK   29  A    between atoms: _77  and  _79
REMARK   30  A    between atoms: _79  and  _80
REMARK   31  A    between atoms: _79  and  _82
REMARK   32  A    between atoms: _82  and  _83
REMARK   33  A    between atoms: _85  and  _87
REMARK   34  A    between atoms: _87  and  _88
REMARK   35  A    between atoms: _87  and  _90
REMARK   36  A    between atoms: _90  and  _91
REMARK   37  A    between atoms: _96  and  _98
REMARK   38  A    between atoms: _98  and  _99
REMARK   39  A    between atoms: _98  and  _101
REMARK   40  A    between atoms: _101  and  _102
REMARK   41  A    between atoms: _112  and  _114
REMARK   42  A    between atoms: _125  and  _128
REMARK   43  A    between atoms: _128  and  _129
REMARK   44  A    between atoms: _137  and  _138
REMARK   45  A    between atoms: _146  and  _148
REMARK   46  A    between atoms: _148  and  _149
REMARK   47  A    between atoms: _148  and  _151
REMARK   48  A    between atoms: _151  and  _152
REMARK   49  A    between atoms: _155  and  _157
REMARK   50  A    between atoms: _157  and  _158
REMARK   51  A    between atoms: _157  and  _160
REMARK   52  A    between atoms: _160  and  _161
REMARK   53  A    between atoms: _161  and  _162
REMARK   54  A    between atoms: _162  and  ZN_361
REMARK   55  A    between atoms: _164  and  _166
REMARK   56  A    between atoms: _166  and  _167
REMARK   57  A    between atoms: _166  and  _169
REMARK   58  A    between atoms: _169  and  _170
REMARK   59  A    between atoms: _170  and  _171
REMARK   60  A    between atoms: _171  and  _172
REMARK   61  A    between atoms: _181  and  _183
REMARK   62  A    between atoms: _183  and  _184
REMARK   63  A    between atoms: _183  and  _186
REMARK   64  A    between atoms: _186  and  _187
REMARK   65  A    between atoms: _187  and  _188
REMARK   66  A    between atoms: _191  and  _193
REMARK   67  A    between atoms: _193  and  _194
REMARK   68  A    between atoms: _193  and  _196
REMARK   69  A    between atoms: _196  and  _197
REMARK   70  A    between atoms: _202  and  _204
REMARK   71  A    between atoms: _204  and  _205
REMARK   72  A    between atoms: _204  and  _207
REMARK   73  A    between atoms: _207  and  _208
REMARK   74  A    between atoms: _212  and  ZN_360
REMARK   75  A    between atoms: _213  and  _215
REMARK   76  A    between atoms: _215  and  _216
REMARK   77  A    between atoms: _215  and  _218
REMARK   78  A    between atoms: _218  and  _219
REMARK   79  A    between atoms: _221  and  _223
REMARK   80  A    between atoms: _223  and  _224
REMARK   81  A    between atoms: _226  and  _228
REMARK   82  A    between atoms: _228  and  _229
REMARK   83  A    between atoms: _228  and  _231
REMARK   84  A    between atoms: _231  and  _232
REMARK   85  A    between atoms: _232  and  ZN_361
REMARK   86  A    between atoms: _233  and  _235
REMARK   87  A    between atoms: _235  and  _236
REMARK   88  A    between atoms: _239  and  _241
REMARK   89  A    between atoms: _241  and  _242
REMARK   90  A    between atoms: _241  and  _244
REMARK   91  A    between atoms: _244  and  _245
REMARK   92  A    between atoms: _250  and  _251
REMARK   93  A    between atoms: _253  and  _255
REMARK   94  A    between atoms: _255  and  _256
REMARK   95  A    between atoms: _255  and  _258
REMARK   96  A    between atoms: _258  and  _259
REMARK   97  A    between atoms: _259  and  _260
REMARK   98  A    between atoms: _263  and  _265
REMARK   99  A    between atoms: _265  and  _266
REMARK  100  A    between atoms: _265  and  _268
REMARK  101  A    between atoms: _268  and  _269
REMARK  102  A    between atoms: _269  and  _270
REMARK  103  A    between atoms: _270  and  _271
REMARK  104  A    between atoms: _280  and  _282
REMARK  105  A    between atoms: _282  and  _283
REMARK  106  A    between atoms: _282  and  _285
REMARK  107  A    between atoms: _285  and  _286
REMARK  108  A    between atoms: _288  and  _290
REMARK  109  A    between atoms: _290  and  _291
REMARK  110  A    between atoms: _294  and  _296
REMARK  111  A    between atoms: _296  and  _297
REMARK  112  A    between atoms: _299  and  _301
REMARK  113  A    between atoms: _301  and  _302
REMARK  114  A    between atoms: _301  and  _304
REMARK  115  A    between atoms: _304  and  _305
REMARK  116  A    between atoms: _310  and  _312
REMARK  117  A    between atoms: _312  and  _313
REMARK  118  A    between atoms: _312  and  _315
REMARK  119  A    between atoms: _318  and  _320
REMARK  120  A    between atoms: _320  and  _321
REMARK  121  A    between atoms: _324  and  _326
REMARK  122  A    between atoms: _326  and  _327
REMARK  123  A    between atoms: _326  and  _329
REMARK  124  A    between atoms: _329  and  _330
REMARK  125  A    between atoms: _333  and  _335
REMARK  126  A    between atoms: _335  and  _336
REMARK  127  A    between atoms: _339  and  _341
REMARK  128  A    between atoms: _341  and  _342
REMARK  129  A    between atoms: _344  and  _346
REMARK  130  A    between atoms: _346  and  _347
REMARK  131  A    between atoms: _346  and  _349
REMARK  132  A    between atoms: _349  and  _350
REMARK  133  A    between atoms: _354  and  ZN_361
REMARK  134  A    between atoms: _355  and  _357
REMARK  135  A    between atoms: _357  and  _358
REMARK                            x       y       z     vdW  Elec       q    Type
REMARK                         _______ _______ _______ _____ _____    ______ ____
ROOT
ATOM      1  O   HOH     1      41.449   9.442 107.319  0.00  0.00    +0.000 OA
ENDROOT
TORSDOF 0
REMARK  Name = ../refined-set-2016/2yz3/2yz3_pocket.pdb
REMARK  135 active torsions:
REMARK  status: ('A' for Active; 'I' for Inactive)
REMARK    1  A    between atoms: _1  and  _3
REMARK    2  A    between atoms: _3  and  _4
REMARK    3  A    between atoms: _3  and  _6
REMARK    4  A    between atoms: _6  and  _7
REMARK    5  A    between atoms: _7  and  _8
REMARK    6  A    between atoms: _13  and  _15
REMARK    7  A    between atoms: _15  and  _16
REMARK    8  A    between atoms: _15  and  _18
REMARK    9  A    between atoms: _18  and  _19
REMARK   10  A    between atoms: _21  and  _23
REMARK   11  A    between atoms: _23  and  _24
REMARK   12  A    between atoms: _23  and  _26
REMARK   13  A    between atoms: _26  and  _27
REMARK   14  A    between atoms: _33  and  _35
REMARK   15  A    between atoms: _35  and  _36
REMARK   16  A    between atoms: _35  and  _38
REMARK   17  A    between atoms: _38  and  _39
REMARK   18  A    between atoms: _42  and  _44
REMARK   19  A    between atoms: _44  and  _45
REMARK   20  A    between atoms: _48  and  _50
REMARK   21  A    between atoms: _50  and  _51
REMARK   22  A    between atoms: _50  and  _53
REMARK   23  A    between atoms: _56  and  _58
REMARK   24  A    between atoms: _58  and  _59
REMARK   25  A    between atoms: _58  and  _61
REMARK   26  A    between atoms: _61  and  _62
REMARK   27  A    between atoms: _67  and  _68
REMARK   28  A    between atoms: _71  and  _72
REMARK   29  A    between atoms: _77  and  _79
REMARK   30  A    between atoms: _79  and  _80
REMARK   31  A    between atoms: _79  and  _82
REMARK   32  A    between atoms: _82  and  _83
REMARK   33  A    between atoms: _85  and  _87
REMARK   34  A    between atoms: _87  and  _88
REMARK   35  A    between atoms: _87  and  _90
REMARK   36  A    between atoms: _90  and  _91
REMARK   37  A    between atoms: _96  and  _98
REMARK   38  A    between atoms: _98  and  _99
REMARK   39  A    between atoms: _98  and  _101
REMARK   40  A    between atoms: _101  and  _102
REMARK   41  A    between atoms: _112  and  _114
REMARK   42  A    between atoms: _125  and  _128
REMARK   43  A    between atoms: _128  and  _129
REMARK   44  A    between atoms: _137  and  _138
REMARK   45  A    between atoms: _146  and  _148
REMARK   46  A    between atoms: _148  and  _149
REMARK   47  A    between atoms: _148  and  _151
REMARK   48  A    between atoms: _151  and  _152
REMARK   49  A    between atoms: _155  and  _157
REMARK   50  A    between atoms: _157  and  _158
REMARK   51  A    between atoms: _157  and  _160
REMARK   52  A    between atoms: _160  and  _161
REMARK   53  A    between atoms: _161  and  _162
REMARK   54  A    between atoms: _162  and  ZN_361
REMARK   55  A    between atoms: _164  and  _166
REMARK   56  A    between atoms: _166  and  _167
REMARK   57  A    between atoms: _166  and  _169
REMARK   58  A    between atoms: _169  and  _170
REMARK   59  A    between atoms: _170  and  _171
REMARK   60  A    between atoms: _171  and  _172
REMARK   61  A    between atoms: _181  and  _183
REMARK   62  A    between atoms: _183  and  _184
REMARK   63  A    between atoms: _183  and  _186
REMARK   64  A    between atoms: _186  and  _187
REMARK   65  A    between atoms: _187  and  _188
REMARK   66  A    between atoms: _191  and  _193
REMARK   67  A    between atoms: _193  and  _194
REMARK   68  A    between atoms: _193  and  _196
REMARK   69  A    between atoms: _196  and  _197
REMARK   70  A    between atoms: _202  and  _204
REMARK   71  A    between atoms: _204  and  _205
REMARK   72  A    between atoms: _204  and  _207
REMARK   73  A    between atoms: _207  and  _208
REMARK   74  A    between atoms: _212  and  ZN_360
REMARK   75  A    between atoms: _213  and  _215
REMARK   76  A    between atoms: _215  and  _216
REMARK   77  A    between atoms: _215  and  _218
REMARK   78  A    between atoms: _218  and  _219
REMARK   79  A    between atoms: _221  and  _223
REMARK   80  A    between atoms: _223  and  _224
REMARK   81  A    between atoms: _226  and  _228
REMARK   82  A    between atoms: _228  and  _229
REMARK   83  A    between atoms: _228  and  _231
REMARK   84  A    between atoms: _231  and  _232
REMARK   85  A    between atoms: _232  and  ZN_361
REMARK   86  A    between atoms: _233  and  _235
REMARK   87  A    between atoms: _235  and  _236
REMARK   88  A    between atoms: _239  and  _241
REMARK   89  A    between atoms: _241  and  _242
REMARK   90  A    between atoms: _241  and  _244
REMARK   91  A    between atoms: _244  and  _245
REMARK   92  A    between atoms: _250  and  _251
REMARK   93  A    between atoms: _253  and  _255
REMARK   94  A    between atoms: _255  and  _256
REMARK   95  A    between atoms: _255  and  _258
REMARK   96  A    between atoms: _258  and  _259
REMARK   97  A    between atoms: _259  and  _260
REMARK   98  A    between atoms: _263  and  _265
REMARK   99  A    between atoms: _265  and  _266
REMARK  100  A    between atoms: _265  and  _268
REMARK  101  A    between atoms: _268  and  _269
REMARK  102  A    between atoms: _269  and  _270
REMARK  103  A    between atoms: _270  and  _271
REMARK  104  A    between atoms: _280  and  _282
REMARK  105  A    between atoms: _282  and  _283
REMARK  106  A    between atoms: _282  and  _285
REMARK  107  A    between atoms: _285  and  _286
REMARK  108  A    between atoms: _288  and  _290
REMARK  109  A    between atoms: _290  and  _291
REMARK  110  A    between atoms: _294  and  _296
REMARK  111  A    between atoms: _296  and  _297
REMARK  112  A    between atoms: _299  and  _301
REMARK  113  A    between atoms: _301  and  _302
REMARK  114  A    between atoms: _301  and  _304
REMARK  115  A    between atoms: _304  and  _305
REMARK  116  A    between atoms: _310  and  _312
REMARK  117  A    between atoms: _312  and  _313
REMARK  118  A    between atoms: _312  and  _315
REMARK  119  A    between atoms: _318  and  _320
REMARK  120  A    between atoms: _320  and  _321
REMARK  121  A    between atoms: _324  and  _326
REMARK  122  A    between atoms: _326  and  _327
REMARK  123  A    between atoms: _326  and  _329
REMARK  124  A    between atoms: _329  and  _330
REMARK  125  A    between atoms: _333  and  _335
REMARK  126  A    between atoms: _335  and  _336
REMARK  127  A    between atoms: _339  and  _341
REMARK  128  A    between atoms: _341  and  _342
REMARK  129  A    between atoms: _344  and  _346
REMARK  130  A    between atoms: _346  and  _347
REMARK  131  A    between atoms: _346  and  _349
REMARK  132  A    between atoms: _349  and  _350
REMARK  133  A    between atoms: _354  and  ZN_361
REMARK  134  A    between atoms: _355  and  _357
REMARK  135  A    between atoms: _357  and  _358
REMARK                            x       y       z     vdW  Elec       q    Type
REMARK                         _______ _______ _______ _____ _____    ______ ____
ROOT
ATOM      1  O   HOH     1      39.996  -0.006 103.310  0.00  0.00    +0.000 OA
ENDROOT
TORSDOF 0
REMARK  Name = ../refined-set-2016/2yz3/2yz3_pocket.pdb
REMARK  135 active torsions:
REMARK  status: ('A' for Active; 'I' for Inactive)
REMARK    1  A    between atoms: _1  and  _3
REMARK    2  A    between atoms: _3  and  _4
REMARK    3  A    between atoms: _3  and  _6
REMARK    4  A    between atoms: _6  and  _7
REMARK    5  A    between atoms: _7  and  _8
REMARK    6  A    between atoms: _13  and  _15
REMARK    7  A    between atoms: _15  and  _16
REMARK    8  A    between atoms: _15  and  _18
REMARK    9  A    between atoms: _18  and  _19
REMARK   10  A    between atoms: _21  and  _23
REMARK   11  A    between atoms: _23  and  _24
REMARK   12  A    between atoms: _23  and  _26
REMARK   13  A    between atoms: _26  and  _27
REMARK   14  A    between atoms: _33  and  _35
REMARK   15  A    between atoms: _35  and  _36
REMARK   16  A    between atoms: _35  and  _38
REMARK   17  A    between atoms: _38  and  _39
REMARK   18  A    between atoms: _42  and  _44
REMARK   19  A    between atoms: _44  and  _45
REMARK   20  A    between atoms: _48  and  _50
REMARK   21  A    between atoms: _50  and  _51
REMARK   22  A    between atoms: _50  and  _53
REMARK   23  A    between atoms: _56  and  _58
REMARK   24  A    between atoms: _58  and  _59
REMARK   25  A    between atoms: _58  and  _61
REMARK   26  A    between atoms: _61  and  _62
REMARK   27  A    between atoms: _67  and  _68
REMARK   28  A    between atoms: _71  and  _72
REMARK   29  A    between atoms: _77  and  _79
REMARK   30  A    between atoms: _79  and  _80
REMARK   31  A    between atoms: _79  and  _82
REMARK   32  A    between atoms: _82  and  _83
REMARK   33  A    between atoms: _85  and  _87
REMARK   34  A    between atoms: _87  and  _88
REMARK   35  A    between atoms: _87  and  _90
REMARK   36  A    between atoms: _90  and  _91
REMARK   37  A    between atoms: _96  and  _98
REMARK   38  A    between atoms: _98  and  _99
REMARK   39  A    between atoms: _98  and  _101
REMARK   40  A    between atoms: _101  and  _102
REMARK   41  A    between atoms: _112  and  _114
REMARK   42  A    between atoms: _125  and  _128
REMARK   43  A    between atoms: _128  and  _129
REMARK   44  A    between atoms: _137  and  _138
REMARK   45  A    between atoms: _146  and  _148
REMARK   46  A    between atoms: _148  and  _149
REMARK   47  A    between atoms: _148  and  _151
REMARK   48  A    between atoms: _151  and  _152
REMARK   49  A    between atoms: _155  and  _157
REMARK   50  A    between atoms: _157  and  _158
REMARK   51  A    between atoms: _157  and  _160
REMARK   52  A    between atoms: _160  and  _161
REMARK   53  A    between atoms: _161  and  _162
REMARK   54  A    between atoms: _162  and  ZN_361
REMARK   55  A    between atoms: _164  and  _166
REMARK   56  A    between atoms: _166  and  _167
REMARK   57  A    between atoms: _166  and  _169
REMARK   58  A    between atoms: _169  and  _170
REMARK   59  A    between atoms: _170  and  _171
REMARK   60  A    between atoms: _171  and  _172
REMARK   61  A    between atoms: _181  and  _183
REMARK   62  A    between atoms: _183  and  _184
REMARK   63  A    between atoms: _183  and  _186
REMARK   64  A    between atoms: _186  and  _187
REMARK   65  A    between atoms: _187  and  _188
REMARK   66  A    between atoms: _191  and  _193
REMARK   67  A    between atoms: _193  and  _194
REMARK   68  A    between atoms: _193  and  _196
REMARK   69  A    between atoms: _196  and  _197
REMARK   70  A    between atoms: _202  and  _204
REMARK   71  A    between atoms: _204  and  _205
REMARK   72  A    between atoms: _204  and  _207
REMARK   73  A    between atoms: _207  and  _208
REMARK   74  A    between atoms: _212  and  ZN_360
REMARK   75  A    between atoms: _213  and  _215
REMARK   76  A    between atoms: _215  and  _216
REMARK   77  A    between atoms: _215  and  _218
REMARK   78  A    between atoms: _218  and  _219
REMARK   79  A    between atoms: _221  and  _223
REMARK   80  A    between atoms: _223  and  _224
REMARK   81  A    between atoms: _226  and  _228
REMARK   82  A    between atoms: _228  and  _229
REMARK   83  A    between atoms: _228  and  _231
REMARK   84  A    between atoms: _231  and  _232
REMARK   85  A    between atoms: _232  and  ZN_361
REMARK   86  A    between atoms: _233  and  _235
REMARK   87  A    between atoms: _235  and  _236
REMARK   88  A    between atoms: _239  and  _241
REMARK   89  A    between atoms: _241  and  _242
REMARK   90  A    between atoms: _241  and  _244
REMARK   91  A    between atoms: _244  and  _245
REMARK   92  A    between atoms: _250  and  _251
REMARK   93  A    between atoms: _253  and  _255
REMARK   94  A    between atoms: _255  and  _256
REMARK   95  A    between atoms: _255  and  _258
REMARK   96  A    between atoms: _258  and  _259
REMARK   97  A    between atoms: _259  and  _260
REMARK   98  A    between atoms: _263  and  _265
REMARK   99  A    between atoms: _265  and  _266
REMARK  100  A    between atoms: _265  and  _268
REMARK  101  A    between atoms: _268  and  _269
REMARK  102  A    between atoms: _269  and  _270
REMARK  103  A    between atoms: _270  and  _271
REMARK  104  A    between atoms: _280  and  _282
REMARK  105  A    between atoms: _282  and  _283
REMARK  106  A    between atoms: _282  and  _285
REMARK  107  A    between atoms: _285  and  _286
REMARK  108  A    between atoms: _288  and  _290
REMARK  109  A    between atoms: _290  and  _291
REMARK  110  A    between atoms: _294  and  _296
REMARK  111  A    between atoms: _296  and  _297
REMARK  112  A    between atoms: _299  and  _301
REMARK  113  A    between atoms: _301  and  _302
REMARK  114  A    between atoms: _301  and  _304
REMARK  115  A    between atoms: _304  and  _305
REMARK  116  A    between atoms: _310  and  _312
REMARK  117  A    between atoms: _312  and  _313
REMARK  118  A    between atoms: _312  and  _315
REMARK  119  A    between atoms: _318  and  _320
REMARK  120  A    between atoms: _320  and  _321
REMARK  121  A    between atoms: _324  and  _326
REMARK  122  A    between atoms: _326  and  _327
REMARK  123  A    between atoms: _326  and  _329
REMARK  124  A    between atoms: _329  and  _330
REMARK  125  A    between atoms: _333  and  _335
REMARK  126  A    between atoms: _335  and  _336
REMARK  127  A    between atoms: _339  and  _341
REMARK  128  A    between atoms: _341  and  _342
REMARK  129  A    between atoms: _344  and  _346
REMARK  130  A    between atoms: _346  and  _347
REMARK  131  A    between atoms: _346  and  _349
REMARK  132  A    between atoms: _349  and  _350
REMARK  133  A    between atoms: _354  and  ZN_361
REMARK  134  A    between atoms: _355  and  _357
REMARK  135  A    between atoms: _357  and  _358
REMARK                            x       y       z     vdW  Elec       q    Type
REMARK                         _______ _______ _______ _____ _____    ______ ____
ROOT
ATOM      1  O   HOH     1      39.098  10.578 106.237  0.00  0.00    +0.000 OA
ENDROOT
TORSDOF 0
REMARK  Name = ../refined-set-2016/2yz3/2yz3_pocket.pdb
REMARK  135 active torsions:
REMARK  status: ('A' for Active; 'I' for Inactive)
REMARK    1  A    between atoms: _1  and  _3
REMARK    2  A    between atoms: _3  and  _4
REMARK    3  A    between atoms: _3  and  _6
REMARK    4  A    between atoms: _6  and  _7
REMARK    5  A    between atoms: _7  and  _8
REMARK    6  A    between atoms: _13  and  _15
REMARK    7  A    between atoms: _15  and  _16
REMARK    8  A    between atoms: _15  and  _18
REMARK    9  A    between atoms: _18  and  _19
REMARK   10  A    between atoms: _21  and  _23
REMARK   11  A    between atoms: _23  and  _24
REMARK   12  A    between atoms: _23  and  _26
REMARK   13  A    between atoms: _26  and  _27
REMARK   14  A    between atoms: _33  and  _35
REMARK   15  A    between atoms: _35  and  _36
REMARK   16  A    between atoms: _35  and  _38
REMARK   17  A    between atoms: _38  and  _39
REMARK   18  A    between atoms: _42  and  _44
REMARK   19  A    between atoms: _44  and  _45
REMARK   20  A    between atoms: _48  and  _50
REMARK   21  A    between atoms: _50  and  _51
REMARK   22  A    between atoms: _50  and  _53
REMARK   23  A    between atoms: _56  and  _58
REMARK   24  A    between atoms: _58  and  _59
REMARK   25  A    between atoms: _58  and  _61
REMARK   26  A    between atoms: _61  and  _62
REMARK   27  A    between atoms: _67  and  _68
REMARK   28  A    between atoms: _71  and  _72
REMARK   29  A    between atoms: _77  and  _79
REMARK   30  A    between atoms: _79  and  _80
REMARK   31  A    between atoms: _79  and  _82
REMARK   32  A    between atoms: _82  and  _83
REMARK   33  A    between atoms: _85  and  _87
REMARK   34  A    between atoms: _87  and  _88
REMARK   35  A    between atoms: _87  and  _90
REMARK   36  A    between atoms: _90  and  _91
REMARK   37  A    between atoms: _96  and  _98
REMARK   38  A    between atoms: _98  and  _99
REMARK   39  A    between atoms: _98  and  _101
REMARK   40  A    between atoms: _101  and  _102
REMARK   41  A    between atoms: _112  and  _114
REMARK   42  A    between atoms: _125  and  _128
REMARK   43  A    between atoms: _128  and  _129
REMARK   44  A    between atoms: _137  and  _138
REMARK   45  A    between atoms: _146  and  _148
REMARK   46  A    between atoms: _148  and  _149
REMARK   47  A    between atoms: _148  and  _151
REMARK   48  A    between atoms: _151  and  _152
REMARK   49  A    between atoms: _155  and  _157
REMARK   50  A    between atoms: _157  and  _158
REMARK   51  A    between atoms: _157  and  _160
REMARK   52  A    between atoms: _160  and  _161
REMARK   53  A    between atoms: _161  and  _162
REMARK   54  A    between atoms: _162  and  ZN_361
REMARK   55  A    between atoms: _164  and  _166
REMARK   56  A    between atoms: _166  and  _167
REMARK   57  A    between atoms: _166  and  _169
REMARK   58  A    between atoms: _169  and  _170
REMARK   59  A    between atoms: _170  and  _171
REMARK   60  A    between atoms: _171  and  _172
REMARK   61  A    between atoms: _181  and  _183
REMARK   62  A    between atoms: _183  and  _184
REMARK   63  A    between atoms: _183  and  _186
REMARK   64  A    between atoms: _186  and  _187
REMARK   65  A    between atoms: _187  and  _188
REMARK   66  A    between atoms: _191  and  _193
REMARK   67  A    between atoms: _193  and  _194
REMARK   68  A    between atoms: _193  and  _196
REMARK   69  A    between atoms: _196  and  _197
REMARK   70  A    between atoms: _202  and  _204
REMARK   71  A    between atoms: _204  and  _205
REMARK   72  A    between atoms: _204  and  _207
REMARK   73  A    between atoms: _207  and  _208
REMARK   74  A    between atoms: _212  and  ZN_360
REMARK   75  A    between atoms: _213  and  _215
REMARK   76  A    between atoms: _215  and  _216
REMARK   77  A    between atoms: _215  and  _218
REMARK   78  A    between atoms: _218  and  _219
REMARK   79  A    between atoms: _221  and  _223
REMARK   80  A    between atoms: _223  and  _224
REMARK   81  A    between atoms: _226  and  _228
REMARK   82  A    between atoms: _228  and  _229
REMARK   83  A    between atoms: _228  and  _231
REMARK   84  A    between atoms: _231  and  _232
REMARK   85  A    between atoms: _232  and  ZN_361
REMARK   86  A    between atoms: _233  and  _235
REMARK   87  A    between atoms: _235  and  _236
REMARK   88  A    between atoms: _239  and  _241
REMARK   89  A    between atoms: _241  and  _242
REMARK   90  A    between atoms: _241  and  _244
REMARK   91  A    between atoms: _244  and  _245
REMARK   92  A    between atoms: _250  and  _251
REMARK   93  A    between atoms: _253  and  _255
REMARK   94  A    between atoms: _255  and  _256
REMARK   95  A    between atoms: _255  and  _258
REMARK   96  A    between atoms: _258  and  _259
REMARK   97  A    between atoms: _259  and  _260
REMARK   98  A    between atoms: _263  and  _265
REMARK   99  A    between atoms: _265  and  _266
REMARK  100  A    between atoms: _265  and  _268
REMARK  101  A    between atoms: _268  and  _269
REMARK  102  A    between atoms: _269  and  _270
REMARK  103  A    between atoms: _270  and  _271
REMARK  104  A    between atoms: _280  and  _282
REMARK  105  A    between atoms: _282  and  _283
REMARK  106  A    between atoms: _282  and  _285
REMARK  107  A    between atoms: _285  and  _286
REMARK  108  A    between atoms: _288  and  _290
REMARK  109  A    between atoms: _290  and  _291
REMARK  110  A    between atoms: _294  and  _296
REMARK  111  A    between atoms: _296  and  _297
REMARK  112  A    between atoms: _299  and  _301
REMARK  113  A    between atoms: _301  and  _302
REMARK  114  A    between atoms: _301  and  _304
REMARK  115  A    between atoms: _304  and  _305
REMARK  116  A    between atoms: _310  and  _312
REMARK  117  A    between atoms: _312  and  _313
REMARK  118  A    between atoms: _312  and  _315
REMARK  119  A    between atoms: _318  and  _320
REMARK  120  A    between atoms: _320  and  _321
REMARK  121  A    between atoms: _324  and  _326
REMARK  122  A    between atoms: _326  and  _327
REMARK  123  A    between atoms: _326  and  _329
REMARK  124  A    between atoms: _329  and  _330
REMARK  125  A    between atoms: _333  and  _335
REMARK  126  A    between atoms: _335  and  _336
REMARK  127  A    between atoms: _339  and  _341
REMARK  128  A    between atoms: _341  and  _342
REMARK  129  A    between atoms: _344  and  _346
REMARK  130  A    between atoms: _346  and  _347
REMARK  131  A    between atoms: _346  and  _349
REMARK  132  A    between atoms: _349  and  _350
REMARK  133  A    between atoms: _354  and  ZN_361
REMARK  134  A    between atoms: _355  and  _357
REMARK  135  A    between atoms: _357  and  _358
REMARK                            x       y       z     vdW  Elec       q    Type
REMARK                         _______ _______ _______ _____ _____    ______ ____
ROOT
ATOM      1  O   HOH     1      36.400   9.501 105.651  0.00  0.00    +0.000 OA
ENDROOT
TORSDOF 0
REMARK  Name = ../refined-set-2016/2yz3/2yz3_pocket.pdb
REMARK  135 active torsions:
REMARK  status: ('A' for Active; 'I' for Inactive)
REMARK    1  A    between atoms: _1  and  _3
REMARK    2  A    between atoms: _3  and  _4
REMARK    3  A    between atoms: _3  and  _6
REMARK    4  A    between atoms: _6  and  _7
REMARK    5  A    between atoms: _7  and  _8
REMARK    6  A    between atoms: _13  and  _15
REMARK    7  A    between atoms: _15  and  _16
REMARK    8  A    between atoms: _15  and  _18
REMARK    9  A    between atoms: _18  and  _19
REMARK   10  A    between atoms: _21  and  _23
REMARK   11  A    between atoms: _23  and  _24
REMARK   12  A    between atoms: _23  and  _26
REMARK   13  A    between atoms: _26  and  _27
REMARK   14  A    between atoms: _33  and  _35
REMARK   15  A    between atoms: _35  and  _36
REMARK   16  A    between atoms: _35  and  _38
REMARK   17  A    between atoms: _38  and  _39
REMARK   18  A    between atoms: _42  and  _44
REMARK   19  A    between atoms: _44  and  _45
REMARK   20  A    between atoms: _48  and  _50
REMARK   21  A    between atoms: _50  and  _51
REMARK   22  A    between atoms: _50  and  _53
REMARK   23  A    between atoms: _56  and  _58
REMARK   24  A    between atoms: _58  and  _59
REMARK   25  A    between atoms: _58  and  _61
REMARK   26  A    between atoms: _61  and  _62
REMARK   27  A    between atoms: _67  and  _68
REMARK   28  A    between atoms: _71  and  _72
REMARK   29  A    between atoms: _77  and  _79
REMARK   30  A    between atoms: _79  and  _80
REMARK   31  A    between atoms: _79  and  _82
REMARK   32  A    between atoms: _82  and  _83
REMARK   33  A    between atoms: _85  and  _87
REMARK   34  A    between atoms: _87  and  _88
REMARK   35  A    between atoms: _87  and  _90
REMARK   36  A    between atoms: _90  and  _91
REMARK   37  A    between atoms: _96  and  _98
REMARK   38  A    between atoms: _98  and  _99
REMARK   39  A    between atoms: _98  and  _101
REMARK   40  A    between atoms: _101  and  _102
REMARK   41  A    between atoms: _112  and  _114
REMARK   42  A    between atoms: _125  and  _128
REMARK   43  A    between atoms: _128  and  _129
REMARK   44  A    between atoms: _137  and  _138
REMARK   45  A    between atoms: _146  and  _148
REMARK   46  A    between atoms: _148  and  _149
REMARK   47  A    between atoms: _148  and  _151
REMARK   48  A    between atoms: _151  and  _152
REMARK   49  A    between atoms: _155  and  _157
REMARK   50  A    between atoms: _157  and  _158
REMARK   51  A    between atoms: _157  and  _160
REMARK   52  A    between atoms: _160  and  _161
REMARK   53  A    between atoms: _161  and  _162
REMARK   54  A    between atoms: _162  and  ZN_361
REMARK   55  A    between atoms: _164  and  _166
REMARK   56  A    between atoms: _166  and  _167
REMARK   57  A    between atoms: _166  and  _169
REMARK   58  A    between atoms: _169  and  _170
REMARK   59  A    between atoms: _170  and  _171
REMARK   60  A    between atoms: _171  and  _172
REMARK   61  A    between atoms: _181  and  _183
REMARK   62  A    between atoms: _183  and  _184
REMARK   63  A    between atoms: _183  and  _186
REMARK   64  A    between atoms: _186  and  _187
REMARK   65  A    between atoms: _187  and  _188
REMARK   66  A    between atoms: _191  and  _193
REMARK   67  A    between atoms: _193  and  _194
REMARK   68  A    between atoms: _193  and  _196
REMARK   69  A    between atoms: _196  and  _197
REMARK   70  A    between atoms: _202  and  _204
REMARK   71  A    between atoms: _204  and  _205
REMARK   72  A    between atoms: _204  and  _207
REMARK   73  A    between atoms: _207  and  _208
REMARK   74  A    between atoms: _212  and  ZN_360
REMARK   75  A    between atoms: _213  and  _215
REMARK   76  A    between atoms: _215  and  _216
REMARK   77  A    between atoms: _215  and  _218
REMARK   78  A    between atoms: _218  and  _219
REMARK   79  A    between atoms: _221  and  _223
REMARK   80  A    between atoms: _223  and  _224
REMARK   81  A    between atoms: _226  and  _228
REMARK   82  A    between atoms: _228  and  _229
REMARK   83  A    between atoms: _228  and  _231
REMARK   84  A    between atoms: _231  and  _232
REMARK   85  A    between atoms: _232  and  ZN_361
REMARK   86  A    between atoms: _233  and  _235
REMARK   87  A    between atoms: _235  and  _236
REMARK   88  A    between atoms: _239  and  _241
REMARK   89  A    between atoms: _241  and  _242
REMARK   90  A    between atoms: _241  and  _244
REMARK   91  A    between atoms: _244  and  _245
REMARK   92  A    between atoms: _250  and  _251
REMARK   93  A    between atoms: _253  and  _255
REMARK   94  A    between atoms: _255  and  _256
REMARK   95  A    between atoms: _255  and  _258
REMARK   96  A    between atoms: _258  and  _259
REMARK   97  A    between atoms: _259  and  _260
REMARK   98  A    between atoms: _263  and  _265
REMARK   99  A    between atoms: _265  and  _266
REMARK  100  A    between atoms: _265  and  _268
REMARK  101  A    between atoms: _268  and  _269
REMARK  102  A    between atoms: _269  and  _270
REMARK  103  A    between atoms: _270  and  _271
REMARK  104  A    between atoms: _280  and  _282
REMARK  105  A    between atoms: _282  and  _283
REMARK  106  A    between atoms: _282  and  _285
REMARK  107  A    between atoms: _285  and  _286
REMARK  108  A    between atoms: _288  and  _290
REMARK  109  A    between atoms: _290  and  _291
REMARK  110  A    between atoms: _294  and  _296
REMARK  111  A    between atoms: _296  and  _297
REMARK  112  A    between atoms: _299  and  _301
REMARK  113  A    between atoms: _301  and  _302
REMARK  114  A    between atoms: _301  and  _304
REMARK  115  A    between atoms: _304  and  _305
REMARK  116  A    between atoms: _310  and  _312
REMARK  117  A    between atoms: _312  and  _313
REMARK  118  A    between atoms: _312  and  _315
REMARK  119  A    between atoms: _318  and  _320
REMARK  120  A    between atoms: _320  and  _321
REMARK  121  A    between atoms: _324  and  _326
REMARK  122  A    between atoms: _326  and  _327
REMARK  123  A    between atoms: _326  and  _329
REMARK  124  A    between atoms: _329  and  _330
REMARK  125  A    between atoms: _333  and  _335
REMARK  126  A    between atoms: _335  and  _336
REMARK  127  A    between atoms: _339  and  _341
REMARK  128  A    between atoms: _341  and  _342
REMARK  129  A    between atoms: _344  and  _346
REMARK  130  A    between atoms: _346  and  _347
REMARK  131  A    between atoms: _346  and  _349
REMARK  132  A    between atoms: _349  and  _350
REMARK  133  A    between atoms: _354  and  ZN_361
REMARK  134  A    between atoms: _355  and  _357
REMARK  135  A    between atoms: _357  and  _358
REMARK                            x       y       z     vdW  Elec       q    Type
REMARK                         _______ _______ _______ _____ _____    ______ ____
ROOT
ATOM      1  O   HOH     1      41.763   6.865 107.096  0.00  0.00    +0.000 OA
ENDROOT
TORSDOF 0
REMARK  Name = ../refined-set-2016/2yz3/2yz3_pocket.pdb
REMARK  135 active torsions:
REMARK  status: ('A' for Active; 'I' for Inactive)
REMARK    1  A    between atoms: _1  and  _3
REMARK    2  A    between atoms: _3  and  _4
REMARK    3  A    between atoms: _3  and  _6
REMARK    4  A    between atoms: _6  and  _7
REMARK    5  A    between atoms: _7  and  _8
REMARK    6  A    between atoms: _13  and  _15
REMARK    7  A    between atoms: _15  and  _16
REMARK    8  A    between atoms: _15  and  _18
REMARK    9  A    between atoms: _18  and  _19
REMARK   10  A    between atoms: _21  and  _23
REMARK   11  A    between atoms: _23  and  _24
REMARK   12  A    between atoms: _23  and  _26
REMARK   13  A    between atoms: _26  and  _27
REMARK   14  A    between atoms: _33  and  _35
REMARK   15  A    between atoms: _35  and  _36
REMARK   16  A    between atoms: _35  and  _38
REMARK   17  A    between atoms: _38  and  _39
REMARK   18  A    between atoms: _42  and  _44
REMARK   19  A    between atoms: _44  and  _45
REMARK   20  A    between atoms: _48  and  _50
REMARK   21  A    between atoms: _50  and  _51
REMARK   22  A    between atoms: _50  and  _53
REMARK   23  A    between atoms: _56  and  _58
REMARK   24  A    between atoms: _58  and  _59
REMARK   25  A    between atoms: _58  and  _61
REMARK   26  A    between atoms: _61  and  _62
REMARK   27  A    between atoms: _67  and  _68
REMARK   28  A    between atoms: _71  and  _72
REMARK   29  A    between atoms: _77  and  _79
REMARK   30  A    between atoms: _79  and  _80
REMARK   31  A    between atoms: _79  and  _82
REMARK   32  A    between atoms: _82  and  _83
REMARK   33  A    between atoms: _85  and  _87
REMARK   34  A    between atoms: _87  and  _88
REMARK   35  A    between atoms: _87  and  _90
REMARK   36  A    between atoms: _90  and  _91
REMARK   37  A    between atoms: _96  and  _98
REMARK   38  A    between atoms: _98  and  _99
REMARK   39  A    between atoms: _98  and  _101
REMARK   40  A    between atoms: _101  and  _102
REMARK   41  A    between atoms: _112  and  _114
REMARK   42  A    between atoms: _125  and  _128
REMARK   43  A    between atoms: _128  and  _129
REMARK   44  A    between atoms: _137  and  _138
REMARK   45  A    between atoms: _146  and  _148
REMARK   46  A    between atoms: _148  and  _149
REMARK   47  A    between atoms: _148  and  _151
REMARK   48  A    between atoms: _151  and  _152
REMARK   49  A    between atoms: _155  and  _157
REMARK   50  A    between atoms: _157  and  _158
REMARK   51  A    between atoms: _157  and  _160
REMARK   52  A    between atoms: _160  and  _161
REMARK   53  A    between atoms: _161  and  _162
REMARK   54  A    between atoms: _162  and  ZN_361
REMARK   55  A    between atoms: _164  and  _166
REMARK   56  A    between atoms: _166  and  _167
REMARK   57  A    between atoms: _166  and  _169
REMARK   58  A    between atoms: _169  and  _170
REMARK   59  A    between atoms: _170  and  _171
REMARK   60  A    between atoms: _171  and  _172
REMARK   61  A    between atoms: _181  and  _183
REMARK   62  A    between atoms: _183  and  _184
REMARK   63  A    between atoms: _183  and  _186
REMARK   64  A    between atoms: _186  and  _187
REMARK   65  A    between atoms: _187  and  _188
REMARK   66  A    between atoms: _191  and  _193
REMARK   67  A    between atoms: _193  and  _194
REMARK   68  A    between atoms: _193  and  _196
REMARK   69  A    between atoms: _196  and  _197
REMARK   70  A    between atoms: _202  and  _204
REMARK   71  A    between atoms: _204  and  _205
REMARK   72  A    between atoms: _204  and  _207
REMARK   73  A    between atoms: _207  and  _208
REMARK   74  A    between atoms: _212  and  ZN_360
REMARK   75  A    between atoms: _213  and  _215
REMARK   76  A    between atoms: _215  and  _216
REMARK   77  A    between atoms: _215  and  _218
REMARK   78  A    between atoms: _218  and  _219
REMARK   79  A    between atoms: _221  and  _223
REMARK   80  A    between atoms: _223  and  _224
REMARK   81  A    between atoms: _226  and  _228
REMARK   82  A    between atoms: _228  and  _229
REMARK   83  A    between atoms: _228  and  _231
REMARK   84  A    between atoms: _231  and  _232
REMARK   85  A    between atoms: _232  and  ZN_361
REMARK   86  A    between atoms: _233  and  _235
REMARK   87  A    between atoms: _235  and  _236
REMARK   88  A    between atoms: _239  and  _241
REMARK   89  A    between atoms: _241  and  _242
REMARK   90  A    between atoms: _241  and  _244
REMARK   91  A    between atoms: _244  and  _245
REMARK   92  A    between atoms: _250  and  _251
REMARK   93  A    between atoms: _253  and  _255
REMARK   94  A    between atoms: _255  and  _256
REMARK   95  A    between atoms: _255  and  _258
REMARK   96  A    between atoms: _258  and  _259
REMARK   97  A    between atoms: _259  and  _260
REMARK   98  A    between atoms: _263  and  _265
REMARK   99  A    between atoms: _265  and  _266
REMARK  100  A    between atoms: _265  and  _268
REMARK  101  A    between atoms: _268  and  _269
REMARK  102  A    between atoms: _269  and  _270
REMARK  103  A    between atoms: _270  and  _271
REMARK  104  A    between atoms: _280  and  _282
REMARK  105  A    between atoms: _282  and  _283
REMARK  106  A    between atoms: _282  and  _285
REMARK  107  A    between atoms: _285  and  _286
REMARK  108  A    between atoms: _288  and  _290
REMARK  109  A    between atoms: _290  and  _291
REMARK  110  A    between atoms: _294  and  _296
REMARK  111  A    between atoms: _296  and  _297
REMARK  112  A    between atoms: _299  and  _301
REMARK  113  A    between atoms: _301  and  _302
REMARK  114  A    between atoms: _301  and  _304
REMARK  115  A    between atoms: _304  and  _305
REMARK  116  A    between atoms: _310  and  _312
REMARK  117  A    between atoms: _312  and  _313
REMARK  118  A    between atoms: _312  and  _315
REMARK  119  A    between atoms: _318  and  _320
REMARK  120  A    between atoms: _320  and  _321
REMARK  121  A    between atoms: _324  and  _326
REMARK  122  A    between atoms: _326  and  _327
REMARK  123  A    between atoms: _326  and  _329
REMARK  124  A    between atoms: _329  and  _330
REMARK  125  A    between atoms: _333  and  _335
REMARK  126  A    between atoms: _335  and  _336
REMARK  127  A    between atoms: _339  and  _341
REMARK  128  A    between atoms: _341  and  _342
REMARK  129  A    between atoms: _344  and  _346
REMARK  130  A    between atoms: _346  and  _347
REMARK  131  A    between atoms: _346  and  _349
REMARK  132  A    between atoms: _349  and  _350
REMARK  133  A    between atoms: _354  and  ZN_361
REMARK  134  A    between atoms: _355  and  _357
REMARK  135  A    between atoms: _357  and  _358
REMARK                            x       y       z     vdW  Elec       q    Type
REMARK                         _______ _______ _______ _____ _____    ______ ____
ROOT
ATOM      1  O   HOH     1      39.716   4.392 109.860  0.00  0.00    +0.000 OA
ENDROOT
TORSDOF 0
REMARK  Name = ../refined-set-2016/2yz3/2yz3_pocket.pdb
REMARK  135 active torsions:
REMARK  status: ('A' for Active; 'I' for Inactive)
REMARK    1  A    between atoms: _1  and  _3
REMARK    2  A    between atoms: _3  and  _4
REMARK    3  A    between atoms: _3  and  _6
REMARK    4  A    between atoms: _6  and  _7
REMARK    5  A    between atoms: _7  and  _8
REMARK    6  A    between atoms: _13  and  _15
REMARK    7  A    between atoms: _15  and  _16
REMARK    8  A    between atoms: _15  and  _18
REMARK    9  A    between atoms: _18  and  _19
REMARK   10  A    between atoms: _21  and  _23
REMARK   11  A    between atoms: _23  and  _24
REMARK   12  A    between atoms: _23  and  _26
REMARK   13  A    between atoms: _26  and  _27
REMARK   14  A    between atoms: _33  and  _35
REMARK   15  A    between atoms: _35  and  _36
REMARK   16  A    between atoms: _35  and  _38
REMARK   17  A    between atoms: _38  and  _39
REMARK   18  A    between atoms: _42  and  _44
REMARK   19  A    between atoms: _44  and  _45
REMARK   20  A    between atoms: _48  and  _50
REMARK   21  A    between atoms: _50  and  _51
REMARK   22  A    between atoms: _50  and  _53
REMARK   23  A    between atoms: _56  and  _58
REMARK   24  A    between atoms: _58  and  _59
REMARK   25  A    between atoms: _58  and  _61
REMARK   26  A    between atoms: _61  and  _62
REMARK   27  A    between atoms: _67  and  _68
REMARK   28  A    between atoms: _71  and  _72
REMARK   29  A    between atoms: _77  and  _79
REMARK   30  A    between atoms: _79  and  _80
REMARK   31  A    between atoms: _79  and  _82
REMARK   32  A    between atoms: _82  and  _83
REMARK   33  A    between atoms: _85  and  _87
REMARK   34  A    between atoms: _87  and  _88
REMARK   35  A    between atoms: _87  and  _90
REMARK   36  A    between atoms: _90  and  _91
REMARK   37  A    between atoms: _96  and  _98
REMARK   38  A    between atoms: _98  and  _99
REMARK   39  A    between atoms: _98  and  _101
REMARK   40  A    between atoms: _101  and  _102
REMARK   41  A    between atoms: _112  and  _114
REMARK   42  A    between atoms: _125  and  _128
REMARK   43  A    between atoms: _128  and  _129
REMARK   44  A    between atoms: _137  and  _138
REMARK   45  A    between atoms: _146  and  _148
REMARK   46  A    between atoms: _148  and  _149
REMARK   47  A    between atoms: _148  and  _151
REMARK   48  A    between atoms: _151  and  _152
REMARK   49  A    between atoms: _155  and  _157
REMARK   50  A    between atoms: _157  and  _158
REMARK   51  A    between atoms: _157  and  _160
REMARK   52  A    between atoms: _160  and  _161
REMARK   53  A    between atoms: _161  and  _162
REMARK   54  A    between atoms: _162  and  ZN_361
REMARK   55  A    between atoms: _164  and  _166
REMARK   56  A    between atoms: _166  and  _167
REMARK   57  A    between atoms: _166  and  _169
REMARK   58  A    between atoms: _169  and  _170
REMARK   59  A    between atoms: _170  and  _171
REMARK   60  A    between atoms: _171  and  _172
REMARK   61  A    between atoms: _181  and  _183
REMARK   62  A    between atoms: _183  and  _184
REMARK   63  A    between atoms: _183  and  _186
REMARK   64  A    between atoms: _186  and  _187
REMARK   65  A    between atoms: _187  and  _188
REMARK   66  A    between atoms: _191  and  _193
REMARK   67  A    between atoms: _193  and  _194
REMARK   68  A    between atoms: _193  and  _196
REMARK   69  A    between atoms: _196  and  _197
REMARK   70  A    between atoms: _202  and  _204
REMARK   71  A    between atoms: _204  and  _205
REMARK   72  A    between atoms: _204  and  _207
REMARK   73  A    between atoms: _207  and  _208
REMARK   74  A    between atoms: _212  and  ZN_360
REMARK   75  A    between atoms: _213  and  _215
REMARK   76  A    between atoms: _215  and  _216
REMARK   77  A    between atoms: _215  and  _218
REMARK   78  A    between atoms: _218  and  _219
REMARK   79  A    between atoms: _221  and  _223
REMARK   80  A    between atoms: _223  and  _224
REMARK   81  A    between atoms: _226  and  _228
REMARK   82  A    between atoms: _228  and  _229
REMARK   83  A    between atoms: _228  and  _231
REMARK   84  A    between atoms: _231  and  _232
REMARK   85  A    between atoms: _232  and  ZN_361
REMARK   86  A    between atoms: _233  and  _235
REMARK   87  A    between atoms: _235  and  _236
REMARK   88  A    between atoms: _239  and  _241
REMARK   89  A    between atoms: _241  and  _242
REMARK   90  A    between atoms: _241  and  _244
REMARK   91  A    between atoms: _244  and  _245
REMARK   92  A    between atoms: _250  and  _251
REMARK   93  A    between atoms: _253  and  _255
REMARK   94  A    between atoms: _255  and  _256
REMARK   95  A    between atoms: _255  and  _258
REMARK   96  A    between atoms: _258  and  _259
REMARK   97  A    between atoms: _259  and  _260
REMARK   98  A    between atoms: _263  and  _265
REMARK   99  A    between atoms: _265  and  _266
REMARK  100  A    between atoms: _265  and  _268
REMARK  101  A    between atoms: _268  and  _269
REMARK  102  A    between atoms: _269  and  _270
REMARK  103  A    between atoms: _270  and  _271
REMARK  104  A    between atoms: _280  and  _282
REMARK  105  A    between atoms: _282  and  _283
REMARK  106  A    between atoms: _282  and  _285
REMARK  107  A    between atoms: _285  and  _286
REMARK  108  A    between atoms: _288  and  _290
REMARK  109  A    between atoms: _290  and  _291
REMARK  110  A    between atoms: _294  and  _296
REMARK  111  A    between atoms: _296  and  _297
REMARK  112  A    between atoms: _299  and  _301
REMARK  113  A    between atoms: _301  and  _302
REMARK  114  A    between atoms: _301  and  _304
REMARK  115  A    between atoms: _304  and  _305
REMARK  116  A    between atoms: _310  and  _312
REMARK  117  A    between atoms: _312  and  _313
REMARK  118  A    between atoms: _312  and  _315
REMARK  119  A    between atoms: _318  and  _320
REMARK  120  A    between atoms: _320  and  _321
REMARK  121  A    between atoms: _324  and  _326
REMARK  122  A    between atoms: _326  and  _327
REMARK  123  A    between atoms: _326  and  _329
REMARK  124  A    between atoms: _329  and  _330
REMARK  125  A    between atoms: _333  and  _335
REMARK  126  A    between atoms: _335  and  _336
REMARK  127  A    between atoms: _339  and  _341
REMARK  128  A    between atoms: _341  and  _342
REMARK  129  A    between atoms: _344  and  _346
REMARK  130  A    between atoms: _346  and  _347
REMARK  131  A    between atoms: _346  and  _349
REMARK  132  A    between atoms: _349  and  _350
REMARK  133  A    between atoms: _354  and  ZN_361
REMARK  134  A    between atoms: _355  and  _357
REMARK  135  A    between atoms: _357  and  _358
REMARK                            x       y       z     vdW  Elec       q    Type
REMARK                         _______ _______ _______ _____ _____    ______ ____
ROOT
ATOM      1  O   HOH     1      28.321  15.602 109.165  0.00  0.00    +0.000 OA
ENDROOT
TORSDOF 0
REMARK  Name = ../refined-set-2016/2yz3/2yz3_pocket.pdb
REMARK  135 active torsions:
REMARK  status: ('A' for Active; 'I' for Inactive)
REMARK    1  A    between atoms: _1  and  _3
REMARK    2  A    between atoms: _3  and  _4
REMARK    3  A    between atoms: _3  and  _6
REMARK    4  A    between atoms: _6  and  _7
REMARK    5  A    between atoms: _7  and  _8
REMARK    6  A    between atoms: _13  and  _15
REMARK    7  A    between atoms: _15  and  _16
REMARK    8  A    between atoms: _15  and  _18
REMARK    9  A    between atoms: _18  and  _19
REMARK   10  A    between atoms: _21  and  _23
REMARK   11  A    between atoms: _23  and  _24
REMARK   12  A    between atoms: _23  and  _26
REMARK   13  A    between atoms: _26  and  _27
REMARK   14  A    between atoms: _33  and  _35
REMARK   15  A    between atoms: _35  and  _36
REMARK   16  A    between atoms: _35  and  _38
REMARK   17  A    between atoms: _38  and  _39
REMARK   18  A    between atoms: _42  and  _44
REMARK   19  A    between atoms: _44  and  _45
REMARK   20  A    between atoms: _48  and  _50
REMARK   21  A    between atoms: _50  and  _51
REMARK   22  A    between atoms: _50  and  _53
REMARK   23  A    between atoms: _56  and  _58
REMARK   24  A    between atoms: _58  and  _59
REMARK   25  A    between atoms: _58  and  _61
REMARK   26  A    between atoms: _61  and  _62
REMARK   27  A    between atoms: _67  and  _68
REMARK   28  A    between atoms: _71  and  _72
REMARK   29  A    between atoms: _77  and  _79
REMARK   30  A    between atoms: _79  and  _80
REMARK   31  A    between atoms: _79  and  _82
REMARK   32  A    between atoms: _82  and  _83
REMARK   33  A    between atoms: _85  and  _87
REMARK   34  A    between atoms: _87  and  _88
REMARK   35  A    between atoms: _87  and  _90
REMARK   36  A    between atoms: _90  and  _91
REMARK   37  A    between atoms: _96  and  _98
REMARK   38  A    between atoms: _98  and  _99
REMARK   39  A    between atoms: _98  and  _101
REMARK   40  A    between atoms: _101  and  _102
REMARK   41  A    between atoms: _112  and  _114
REMARK   42  A    between atoms: _125  and  _128
REMARK   43  A    between atoms: _128  and  _129
REMARK   44  A    between atoms: _137  and  _138
REMARK   45  A    between atoms: _146  and  _148
REMARK   46  A    between atoms: _148  and  _149
REMARK   47  A    between atoms: _148  and  _151
REMARK   48  A    between atoms: _151  and  _152
REMARK   49  A    between atoms: _155  and  _157
REMARK   50  A    between atoms: _157  and  _158
REMARK   51  A    between atoms: _157  and  _160
REMARK   52  A    between atoms: _160  and  _161
REMARK   53  A    between atoms: _161  and  _162
REMARK   54  A    between atoms: _162  and  ZN_361
REMARK   55  A    between atoms: _164  and  _166
REMARK   56  A    between atoms: _166  and  _167
REMARK   57  A    between atoms: _166  and  _169
REMARK   58  A    between atoms: _169  and  _170
REMARK   59  A    between atoms: _170  and  _171
REMARK   60  A    between atoms: _171  and  _172
REMARK   61  A    between atoms: _181  and  _183
REMARK   62  A    between atoms: _183  and  _184
REMARK   63  A    between atoms: _183  and  _186
REMARK   64  A    between atoms: _186  and  _187
REMARK   65  A    between atoms: _187  and  _188
REMARK   66  A    between atoms: _191  and  _193
REMARK   67  A    between atoms: _193  and  _194
REMARK   68  A    between atoms: _193  and  _196
REMARK   69  A    between atoms: _196  and  _197
REMARK   70  A    between atoms: _202  and  _204
REMARK   71  A    between atoms: _204  and  _205
REMARK   72  A    between atoms: _204  and  _207
REMARK   73  A    between atoms: _207  and  _208
REMARK   74  A    between atoms: _212  and  ZN_360
REMARK   75  A    between atoms: _213  and  _215
REMARK   76  A    between atoms: _215  and  _216
REMARK   77  A    between atoms: _215  and  _218
REMARK   78  A    between atoms: _218  and  _219
REMARK   79  A    between atoms: _221  and  _223
REMARK   80  A    between atoms: _223  and  _224
REMARK   81  A    between atoms: _226  and  _228
REMARK   82  A    between atoms: _228  and  _229
REMARK   83  A    between atoms: _228  and  _231
REMARK   84  A    between atoms: _231  and  _232
REMARK   85  A    between atoms: _232  and  ZN_361
REMARK   86  A    between atoms: _233  and  _235
REMARK   87  A    between atoms: _235  and  _236
REMARK   88  A    between atoms: _239  and  _241
REMARK   89  A    between atoms: _241  and  _242
REMARK   90  A    between atoms: _241  and  _244
REMARK   91  A    between atoms: _244  and  _245
REMARK   92  A    between atoms: _250  and  _251
REMARK   93  A    between atoms: _253  and  _255
REMARK   94  A    between atoms: _255  and  _256
REMARK   95  A    between atoms: _255  and  _258
REMARK   96  A    between atoms: _258  and  _259
REMARK   97  A    between atoms: _259  and  _260
REMARK   98  A    between atoms: _263  and  _265
REMARK   99  A    between atoms: _265  and  _266
REMARK  100  A    between atoms: _265  and  _268
REMARK  101  A    between atoms: _268  and  _269
REMARK  102  A    between atoms: _269  and  _270
REMARK  103  A    between atoms: _270  and  _271
REMARK  104  A    between atoms: _280  and  _282
REMARK  105  A    between atoms: _282  and  _283
REMARK  106  A    between atoms: _282  and  _285
REMARK  107  A    between atoms: _285  and  _286
REMARK  108  A    between atoms: _288  and  _290
REMARK  109  A    between atoms: _290  and  _291
REMARK  110  A    between atoms: _294  and  _296
REMARK  111  A    between atoms: _296  and  _297
REMARK  112  A    between atoms: _299  and  _301
REMARK  113  A    between atoms: _301  and  _302
REMARK  114  A    between atoms: _301  and  _304
REMARK  115  A    between atoms: _304  and  _305
REMARK  116  A    between atoms: _310  and  _312
REMARK  117  A    between atoms: _312  and  _313
REMARK  118  A    between atoms: _312  and  _315
REMARK  119  A    between atoms: _318  and  _320
REMARK  120  A    between atoms: _320  and  _321
REMARK  121  A    between atoms: _324  and  _326
REMARK  122  A    between atoms: _326  and  _327
REMARK  123  A    between atoms: _326  and  _329
REMARK  124  A    between atoms: _329  and  _330
REMARK  125  A    between atoms: _333  and  _335
REMARK  126  A    between atoms: _335  and  _336
REMARK  127  A    between atoms: _339  and  _341
REMARK  128  A    between atoms: _341  and  _342
REMARK  129  A    between atoms: _344  and  _346
REMARK  130  A    between atoms: _346  and  _347
REMARK  131  A    between atoms: _346  and  _349
REMARK  132  A    between atoms: _349  and  _350
REMARK  133  A    between atoms: _354  and  ZN_361
REMARK  134  A    between atoms: _355  and  _357
REMARK  135  A    between atoms: _357  and  _358
REMARK                            x       y       z     vdW  Elec       q    Type
REMARK                         _______ _______ _______ _____ _____    ______ ____
ROOT
ATOM      1  O   HOH     1      27.539   9.886 113.100  0.00  0.00    +0.000 OA
ENDROOT
TORSDOF 0
REMARK  Name = ../refined-set-2016/2yz3/2yz3_pocket.pdb
REMARK  135 active torsions:
REMARK  status: ('A' for Active; 'I' for Inactive)
REMARK    1  A    between atoms: _1  and  _3
REMARK    2  A    between atoms: _3  and  _4
REMARK    3  A    between atoms: _3  and  _6
REMARK    4  A    between atoms: _6  and  _7
REMARK    5  A    between atoms: _7  and  _8
REMARK    6  A    between atoms: _13  and  _15
REMARK    7  A    between atoms: _15  and  _16
REMARK    8  A    between atoms: _15  and  _18
REMARK    9  A    between atoms: _18  and  _19
REMARK   10  A    between atoms: _21  and  _23
REMARK   11  A    between atoms: _23  and  _24
REMARK   12  A    between atoms: _23  and  _26
REMARK   13  A    between atoms: _26  and  _27
REMARK   14  A    between atoms: _33  and  _35
REMARK   15  A    between atoms: _35  and  _36
REMARK   16  A    between atoms: _35  and  _38
REMARK   17  A    between atoms: _38  and  _39
REMARK   18  A    between atoms: _42  and  _44
REMARK   19  A    between atoms: _44  and  _45
REMARK   20  A    between atoms: _48  and  _50
REMARK   21  A    between atoms: _50  and  _51
REMARK   22  A    between atoms: _50  and  _53
REMARK   23  A    between atoms: _56  and  _58
REMARK   24  A    between atoms: _58  and  _59
REMARK   25  A    between atoms: _58  and  _61
REMARK   26  A    between atoms: _61  and  _62
REMARK   27  A    between atoms: _67  and  _68
REMARK   28  A    between atoms: _71  and  _72
REMARK   29  A    between atoms: _77  and  _79
REMARK   30  A    between atoms: _79  and  _80
REMARK   31  A    between atoms: _79  and  _82
REMARK   32  A    between atoms: _82  and  _83
REMARK   33  A    between atoms: _85  and  _87
REMARK   34  A    between atoms: _87  and  _88
REMARK   35  A    between atoms: _87  and  _90
REMARK   36  A    between atoms: _90  and  _91
REMARK   37  A    between atoms: _96  and  _98
REMARK   38  A    between atoms: _98  and  _99
REMARK   39  A    between atoms: _98  and  _101
REMARK   40  A    between atoms: _101  and  _102
REMARK   41  A    between atoms: _112  and  _114
REMARK   42  A    between atoms: _125  and  _128
REMARK   43  A    between atoms: _128  and  _129
REMARK   44  A    between atoms: _137  and  _138
REMARK   45  A    between atoms: _146  and  _148
REMARK   46  A    between atoms: _148  and  _149
REMARK   47  A    between atoms: _148  and  _151
REMARK   48  A    between atoms: _151  and  _152
REMARK   49  A    between atoms: _155  and  _157
REMARK   50  A    between atoms: _157  and  _158
REMARK   51  A    between atoms: _157  and  _160
REMARK   52  A    between atoms: _160  and  _161
REMARK   53  A    between atoms: _161  and  _162
REMARK   54  A    between atoms: _162  and  ZN_361
REMARK   55  A    between atoms: _164  and  _166
REMARK   56  A    between atoms: _166  and  _167
REMARK   57  A    between atoms: _166  and  _169
REMARK   58  A    between atoms: _169  and  _170
REMARK   59  A    between atoms: _170  and  _171
REMARK   60  A    between atoms: _171  and  _172
REMARK   61  A    between atoms: _181  and  _183
REMARK   62  A    between atoms: _183  and  _184
REMARK   63  A    between atoms: _183  and  _186
REMARK   64  A    between atoms: _186  and  _187
REMARK   65  A    between atoms: _187  and  _188
REMARK   66  A    between atoms: _191  and  _193
REMARK   67  A    between atoms: _193  and  _194
REMARK   68  A    between atoms: _193  and  _196
REMARK   69  A    between atoms: _196  and  _197
REMARK   70  A    between atoms: _202  and  _204
REMARK   71  A    between atoms: _204  and  _205
REMARK   72  A    between atoms: _204  and  _207
REMARK   73  A    between atoms: _207  and  _208
REMARK   74  A    between atoms: _212  and  ZN_360
REMARK   75  A    between atoms: _213  and  _215
REMARK   76  A    between atoms: _215  and  _216
REMARK   77  A    between atoms: _215  and  _218
REMARK   78  A    between atoms: _218  and  _219
REMARK   79  A    between atoms: _221  and  _223
REMARK   80  A    between atoms: _223  and  _224
REMARK   81  A    between atoms: _226  and  _228
REMARK   82  A    between atoms: _228  and  _229
REMARK   83  A    between atoms: _228  and  _231
REMARK   84  A    between atoms: _231  and  _232
REMARK   85  A    between atoms: _232  and  ZN_361
REMARK   86  A    between atoms: _233  and  _235
REMARK   87  A    between atoms: _235  and  _236
REMARK   88  A    between atoms: _239  and  _241
REMARK   89  A    between atoms: _241  and  _242
REMARK   90  A    between atoms: _241  and  _244
REMARK   91  A    between atoms: _244  and  _245
REMARK   92  A    between atoms: _250  and  _251
REMARK   93  A    between atoms: _253  and  _255
REMARK   94  A    between atoms: _255  and  _256
REMARK   95  A    between atoms: _255  and  _258
REMARK   96  A    between atoms: _258  and  _259
REMARK   97  A    between atoms: _259  and  _260
REMARK   98  A    between atoms: _263  and  _265
REMARK   99  A    between atoms: _265  and  _266
REMARK  100  A    between atoms: _265  and  _268
REMARK  101  A    between atoms: _268  and  _269
REMARK  102  A    between atoms: _269  and  _270
REMARK  103  A    between atoms: _270  and  _271
REMARK  104  A    between atoms: _280  and  _282
REMARK  105  A    between atoms: _282  and  _283
REMARK  106  A    between atoms: _282  and  _285
REMARK  107  A    between atoms: _285  and  _286
REMARK  108  A    between atoms: _288  and  _290
REMARK  109  A    between atoms: _290  and  _291
REMARK  110  A    between atoms: _294  and  _296
REMARK  111  A    between atoms: _296  and  _297
REMARK  112  A    between atoms: _299  and  _301
REMARK  113  A    between atoms: _301  and  _302
REMARK  114  A    between atoms: _301  and  _304
REMARK  115  A    between atoms: _304  and  _305
REMARK  116  A    between atoms: _310  and  _312
REMARK  117  A    between atoms: _312  and  _313
REMARK  118  A    between atoms: _312  and  _315
REMARK  119  A    between atoms: _318  and  _320
REMARK  120  A    between atoms: _320  and  _321
REMARK  121  A    between atoms: _324  and  _326
REMARK  122  A    between atoms: _326  and  _327
REMARK  123  A    between atoms: _326  and  _329
REMARK  124  A    between atoms: _329  and  _330
REMARK  125  A    between atoms: _333  and  _335
REMARK  126  A    between atoms: _335  and  _336
REMARK  127  A    between atoms: _339  and  _341
REMARK  128  A    between atoms: _341  and  _342
REMARK  129  A    between atoms: _344  and  _346
REMARK  130  A    between atoms: _346  and  _347
REMARK  131  A    between atoms: _346  and  _349
REMARK  132  A    between atoms: _349  and  _350
REMARK  133  A    between atoms: _354  and  ZN_361
REMARK  134  A    between atoms: _355  and  _357
REMARK  135  A    between atoms: _357  and  _358
REMARK                            x       y       z     vdW  Elec       q    Type
REMARK                         _______ _______ _______ _____ _____    ______ ____
ROOT
ATOM      1  O   HOH     1      27.294   6.256 104.595  0.00  0.00    +0.000 OA
ENDROOT
TORSDOF 0
REMARK  Name = ../refined-set-2016/2yz3/2yz3_pocket.pdb
REMARK  135 active torsions:
REMARK  status: ('A' for Active; 'I' for Inactive)
REMARK    1  A    between atoms: _1  and  _3
REMARK    2  A    between atoms: _3  and  _4
REMARK    3  A    between atoms: _3  and  _6
REMARK    4  A    between atoms: _6  and  _7
REMARK    5  A    between atoms: _7  and  _8
REMARK    6  A    between atoms: _13  and  _15
REMARK    7  A    between atoms: _15  and  _16
REMARK    8  A    between atoms: _15  and  _18
REMARK    9  A    between atoms: _18  and  _19
REMARK   10  A    between atoms: _21  and  _23
REMARK   11  A    between atoms: _23  and  _24
REMARK   12  A    between atoms: _23  and  _26
REMARK   13  A    between atoms: _26  and  _27
REMARK   14  A    between atoms: _33  and  _35
REMARK   15  A    between atoms: _35  and  _36
REMARK   16  A    between atoms: _35  and  _38
REMARK   17  A    between atoms: _38  and  _39
REMARK   18  A    between atoms: _42  and  _44
REMARK   19  A    between atoms: _44  and  _45
REMARK   20  A    between atoms: _48  and  _50
REMARK   21  A    between atoms: _50  and  _51
REMARK   22  A    between atoms: _50  and  _53
REMARK   23  A    between atoms: _56  and  _58
REMARK   24  A    between atoms: _58  and  _59
REMARK   25  A    between atoms: _58  and  _61
REMARK   26  A    between atoms: _61  and  _62
REMARK   27  A    between atoms: _67  and  _68
REMARK   28  A    between atoms: _71  and  _72
REMARK   29  A    between atoms: _77  and  _79
REMARK   30  A    between atoms: _79  and  _80
REMARK   31  A    between atoms: _79  and  _82
REMARK   32  A    between atoms: _82  and  _83
REMARK   33  A    between atoms: _85  and  _87
REMARK   34  A    between atoms: _87  and  _88
REMARK   35  A    between atoms: _87  and  _90
REMARK   36  A    between atoms: _90  and  _91
REMARK   37  A    between atoms: _96  and  _98
REMARK   38  A    between atoms: _98  and  _99
REMARK   39  A    between atoms: _98  and  _101
REMARK   40  A    between atoms: _101  and  _102
REMARK   41  A    between atoms: _112  and  _114
REMARK   42  A    between atoms: _125  and  _128
REMARK   43  A    between atoms: _128  and  _129
REMARK   44  A    between atoms: _137  and  _138
REMARK   45  A    between atoms: _146  and  _148
REMARK   46  A    between atoms: _148  and  _149
REMARK   47  A    between atoms: _148  and  _151
REMARK   48  A    between atoms: _151  and  _152
REMARK   49  A    between atoms: _155  and  _157
REMARK   50  A    between atoms: _157  and  _158
REMARK   51  A    between atoms: _157  and  _160
REMARK   52  A    between atoms: _160  and  _161
REMARK   53  A    between atoms: _161  and  _162
REMARK   54  A    between atoms: _162  and  ZN_361
REMARK   55  A    between atoms: _164  and  _166
REMARK   56  A    between atoms: _166  and  _167
REMARK   57  A    between atoms: _166  and  _169
REMARK   58  A    between atoms: _169  and  _170
REMARK   59  A    between atoms: _170  and  _171
REMARK   60  A    between atoms: _171  and  _172
REMARK   61  A    between atoms: _181  and  _183
REMARK   62  A    between atoms: _183  and  _184
REMARK   63  A    between atoms: _183  and  _186
REMARK   64  A    between atoms: _186  and  _187
REMARK   65  A    between atoms: _187  and  _188
REMARK   66  A    between atoms: _191  and  _193
REMARK   67  A    between atoms: _193  and  _194
REMARK   68  A    between atoms: _193  and  _196
REMARK   69  A    between atoms: _196  and  _197
REMARK   70  A    between atoms: _202  and  _204
REMARK   71  A    between atoms: _204  and  _205
REMARK   72  A    between atoms: _204  and  _207
REMARK   73  A    between atoms: _207  and  _208
REMARK   74  A    between atoms: _212  and  ZN_360
REMARK   75  A    between atoms: _213  and  _215
REMARK   76  A    between atoms: _215  and  _216
REMARK   77  A    between atoms: _215  and  _218
REMARK   78  A    between atoms: _218  and  _219
REMARK   79  A    between atoms: _221  and  _223
REMARK   80  A    between atoms: _223  and  _224
REMARK   81  A    between atoms: _226  and  _228
REMARK   82  A    between atoms: _228  and  _229
REMARK   83  A    between atoms: _228  and  _231
REMARK   84  A    between atoms: _231  and  _232
REMARK   85  A    between atoms: _232  and  ZN_361
REMARK   86  A    between atoms: _233  and  _235
REMARK   87  A    between atoms: _235  and  _236
REMARK   88  A    between atoms: _239  and  _241
REMARK   89  A    between atoms: _241  and  _242
REMARK   90  A    between atoms: _241  and  _244
REMARK   91  A    between atoms: _244  and  _245
REMARK   92  A    between atoms: _250  and  _251
REMARK   93  A    between atoms: _253  and  _255
REMARK   94  A    between atoms: _255  and  _256
REMARK   95  A    between atoms: _255  and  _258
REMARK   96  A    between atoms: _258  and  _259
REMARK   97  A    between atoms: _259  and  _260
REMARK   98  A    between atoms: _263  and  _265
REMARK   99  A    between atoms: _265  and  _266
REMARK  100  A    between atoms: _265  and  _268
REMARK  101  A    between atoms: _268  and  _269
REMARK  102  A    between atoms: _269  and  _270
REMARK  103  A    between atoms: _270  and  _271
REMARK  104  A    between atoms: _280  and  _282
REMARK  105  A    between atoms: _282  and  _283
REMARK  106  A    between atoms: _282  and  _285
REMARK  107  A    between atoms: _285  and  _286
REMARK  108  A    between atoms: _288  and  _290
REMARK  109  A    between atoms: _290  and  _291
REMARK  110  A    between atoms: _294  and  _296
REMARK  111  A    between atoms: _296  and  _297
REMARK  112  A    between atoms: _299  and  _301
REMARK  113  A    between atoms: _301  and  _302
REMARK  114  A    between atoms: _301  and  _304
REMARK  115  A    between atoms: _304  and  _305
REMARK  116  A    between atoms: _310  and  _312
REMARK  117  A    between atoms: _312  and  _313
REMARK  118  A    between atoms: _312  and  _315
REMARK  119  A    between atoms: _318  and  _320
REMARK  120  A    between atoms: _320  and  _321
REMARK  121  A    between atoms: _324  and  _326
REMARK  122  A    between atoms: _326  and  _327
REMARK  123  A    between atoms: _326  and  _329
REMARK  124  A    between atoms: _329  and  _330
REMARK  125  A    between atoms: _333  and  _335
REMARK  126  A    between atoms: _335  and  _336
REMARK  127  A    between atoms: _339  and  _341
REMARK  128  A    between atoms: _341  and  _342
REMARK  129  A    between atoms: _344  and  _346
REMARK  130  A    between atoms: _346  and  _347
REMARK  131  A    between atoms: _346  and  _349
REMARK  132  A    between atoms: _349  and  _350
REMARK  133  A    between atoms: _354  and  ZN_361
REMARK  134  A    between atoms: _355  and  _357
REMARK  135  A    between atoms: _357  and  _358
REMARK                            x       y       z     vdW  Elec       q    Type
REMARK                         _______ _______ _______ _____ _____    ______ ____
ROOT
ATOM      1  O   HOH     1      29.323  13.323 104.024  0.00  0.00    +0.000 OA
ENDROOT
TORSDOF 0
