REMARK  Name = ../refined-set-2016/4nwc/4nwc_pocket.pdb
REMARK  218 active torsions:
REMARK  status: ('A' for Active; 'I' for Inactive)
REMARK    1  A    between atoms: _1  and  _3
REMARK    2  A    between atoms: _3  and  _4
REMARK    3  A    between atoms: _3  and  _6
REMARK    4  A    between atoms: _6  and  _7
REMARK    5  A    between atoms: _10  and  _12
REMARK    6  A    between atoms: _12  and  _13
REMARK    7  A    between atoms: _12  and  _15
REMARK    8  A    between atoms: _15  and  _16
REMARK    9  A    between atoms: _19  and  _21
REMARK   10  A    between atoms: _21  and  _22
REMARK   11  A    between atoms: _21  and  _24
REMARK   12  A    between atoms: _24  and  _25
REMARK   13  A    between atoms: _25  and  _26
REMARK   14  A    between atoms: _29  and  _31
REMARK   15  A    between atoms: _31  and  _32
REMARK   16  A    between atoms: _31  and  _34
REMARK   17  A    between atoms: _34  and  _35
REMARK   18  A    between atoms: _35  and  _36
REMARK   19  A    between atoms: _40  and  _41
REMARK   20  A    between atoms: _46  and  _48
REMARK   21  A    between atoms: _48  and  _49
REMARK   22  A    between atoms: _48  and  _51
REMARK   23  A    between atoms: _51  and  _52
REMARK   24  A    between atoms: _58  and  _60
REMARK   25  A    between atoms: _60  and  _61
REMARK   26  A    between atoms: _60  and  _63
REMARK   27  A    between atoms: _63  and  _64
REMARK   28  A    between atoms: _64  and  _65
REMARK   29  A    between atoms: _65  and  _66
REMARK   30  A    between atoms: _66  and  _67
REMARK   31  A    between atoms: _71  and  _73
REMARK   32  A    between atoms: _73  and  _74
REMARK   33  A    between atoms: _73  and  _76
REMARK   34  A    between atoms: _76  and  _77
REMARK   35  A    between atoms: _82  and  _83
REMARK   36  A    between atoms: _85  and  _87
REMARK   37  A    between atoms: _87  and  _88
REMARK   38  A    between atoms: _90  and  _92
REMARK   39  A    between atoms: _92  and  _93
REMARK   40  A    between atoms: _96  and  _98
REMARK   41  A    between atoms: _98  and  _99
REMARK   42  A    between atoms: _98  and  _101
REMARK   43  A    between atoms: _101  and  _102
REMARK   44  A    between atoms: _102  and  _103
REMARK   45  A    between atoms: _105  and  _107
REMARK   46  A    between atoms: _107  and  _108
REMARK   47  A    between atoms: _107  and  _110
REMARK   48  A    between atoms: _113  and  _115
REMARK   49  A    between atoms: _115  and  _116
REMARK   50  A    between atoms: _120  and  _121
REMARK   51  A    between atoms: _126  and  _128
REMARK   52  A    between atoms: _128  and  _129
REMARK   53  A    between atoms: _128  and  _131
REMARK   54  A    between atoms: _131  and  _132
REMARK   55  A    between atoms: _135  and  _137
REMARK   56  A    between atoms: _137  and  _138
REMARK   57  A    between atoms: _137  and  _140
REMARK   58  A    between atoms: _140  and  _141
REMARK   59  A    between atoms: _144  and  _146
REMARK   60  A    between atoms: _146  and  _147
REMARK   61  A    between atoms: _146  and  _149
REMARK   62  A    between atoms: _149  and  _150
REMARK   63  A    between atoms: _153  and  _155
REMARK   64  A    between atoms: _155  and  _156
REMARK   65  A    between atoms: _155  and  _158
REMARK   66  A    between atoms: _158  and  _159
REMARK   67  A    between atoms: _162  and  _164
REMARK   68  A    between atoms: _164  and  _165
REMARK   69  A    between atoms: _164  and  _167
REMARK   70  A    between atoms: _167  and  _168
REMARK   71  A    between atoms: _168  and  _169
REMARK   72  A    between atoms: _169  and  _170
REMARK   73  A    between atoms: _179  and  _181
REMARK   74  A    between atoms: _181  and  _182
REMARK   75  A    between atoms: _181  and  _184
REMARK   76  A    between atoms: _184  and  _185
REMARK   77  A    between atoms: _191  and  _193
REMARK   78  A    between atoms: _193  and  _194
REMARK   79  A    between atoms: _193  and  _196
REMARK   80  A    between atoms: _196  and  _197
REMARK   81  A    between atoms: _197  and  _198
REMARK   82  A    between atoms: _200  and  _202
REMARK   83  A    between atoms: _202  and  _203
REMARK   84  A    between atoms: _202  and  _205
REMARK   85  A    between atoms: _205  and  _206
REMARK   86  A    between atoms: _209  and  _211
REMARK   87  A    between atoms: _211  and  _212
REMARK   88  A    between atoms: _214  and  _216
REMARK   89  A    between atoms: _216  and  _217
REMARK   90  A    between atoms: _216  and  _219
REMARK   91  A    between atoms: _222  and  _224
REMARK   92  A    between atoms: _224  and  _225
REMARK   93  A    between atoms: _224  and  _227
REMARK   94  A    between atoms: _227  and  _228
REMARK   95  A    between atoms: _230  and  _232
REMARK   96  A    between atoms: _232  and  _233
REMARK   97  A    between atoms: _235  and  _237
REMARK   98  A    between atoms: _237  and  _238
REMARK   99  A    between atoms: _241  and  _243
REMARK  100  A    between atoms: _243  and  _244
REMARK  101  A    between atoms: _243  and  _246
REMARK  102  A    between atoms: _249  and  _251
REMARK  103  A    between atoms: _251  and  _252
REMARK  104  A    between atoms: _251  and  _254
REMARK  105  A    between atoms: _254  and  _255
REMARK  106  A    between atoms: _255  and  _256
REMARK  107  A    between atoms: _256  and  _257
REMARK  108  A    between atoms: _257  and  _258
REMARK  109  A    between atoms: _262  and  _264
REMARK  110  A    between atoms: _264  and  _265
REMARK  111  A    between atoms: _264  and  _267
REMARK  112  A    between atoms: _267  and  _268
REMARK  113  A    between atoms: _271  and  _273
REMARK  114  A    between atoms: _273  and  _274
REMARK  115  A    between atoms: _276  and  _278
REMARK  116  A    between atoms: _278  and  _279
REMARK  117  A    between atoms: _282  and  _284
REMARK  118  A    between atoms: _284  and  _285
REMARK  119  A    between atoms: _284  and  _287
REMARK  120  A    between atoms: _287  and  _288
REMARK  121  A    between atoms: _291  and  _293
REMARK  122  A    between atoms: _293  and  _294
REMARK  123  A    between atoms: _293  and  _296
REMARK  124  A    between atoms: _296  and  _297
REMARK  125  A    between atoms: _297  and  _298
REMARK  126  A    between atoms: _300  and  _302
REMARK  127  A    between atoms: _302  and  _303
REMARK  128  A    between atoms: _302  and  _305
REMARK  129  A    between atoms: _305  and  _306
REMARK  130  A    between atoms: _309  and  _311
REMARK  131  A    between atoms: _311  and  _312
REMARK  132  A    between atoms: _311  and  _314
REMARK  133  A    between atoms: _314  and  _315
REMARK  134  A    between atoms: _321  and  _323
REMARK  135  A    between atoms: _323  and  _324
REMARK  136  A    between atoms: _323  and  _326
REMARK  137  A    between atoms: _329  and  _331
REMARK  138  A    between atoms: _331  and  _332
REMARK  139  A    between atoms: _331  and  _334
REMARK  140  A    between atoms: _334  and  _335
REMARK  141  A    between atoms: _335  and  _336
REMARK  142  A    between atoms: _336  and  _337
REMARK  143  A    between atoms: _337  and  _338
REMARK  144  A    between atoms: _342  and  _344
REMARK  145  A    between atoms: _344  and  _345
REMARK  146  A    between atoms: _344  and  _347
REMARK  147  A    between atoms: _347  and  _348
REMARK  148  A    between atoms: _353  and  _355
REMARK  149  A    between atoms: _355  and  _356
REMARK  150  A    between atoms: _355  and  _358
REMARK  151  A    between atoms: _358  and  _359
REMARK  152  A    between atoms: _364  and  _366
REMARK  153  A    between atoms: _366  and  _367
REMARK  154  A    between atoms: _366  and  _369
REMARK  155  A    between atoms: _369  and  _370
REMARK  156  A    between atoms: _370  and  _371
REMARK  157  A    between atoms: _374  and  _376
REMARK  158  A    between atoms: _376  and  _377
REMARK  159  A    between atoms: _376  and  _379
REMARK  160  A    between atoms: _379  and  _380
REMARK  161  A    between atoms: _383  and  _385
REMARK  162  A    between atoms: _385  and  _386
REMARK  163  A    between atoms: _385  and  _388
REMARK  164  A    between atoms: _388  and  _389
REMARK  165  A    between atoms: _392  and  _394
REMARK  166  A    between atoms: _394  and  _395
REMARK  167  A    between atoms: _394  and  _397
REMARK  168  A    between atoms: _397  and  _398
REMARK  169  A    between atoms: _401  and  _403
REMARK  170  A    between atoms: _403  and  _404
REMARK  171  A    between atoms: _403  and  _406
REMARK  172  A    between atoms: _406  and  _407
REMARK  173  A    between atoms: _407  and  _408
REMARK  174  A    between atoms: _410  and  _412
REMARK  175  A    between atoms: _412  and  _413
REMARK  176  A    between atoms: _412  and  _415
REMARK  177  A    between atoms: _415  and  _416
REMARK  178  A    between atoms: _416  and  _417
REMARK  179  A    between atoms: _420  and  _422
REMARK  180  A    between atoms: _422  and  _423
REMARK  181  A    between atoms: _422  and  _425
REMARK  182  A    between atoms: _425  and  _426
REMARK  183  A    between atoms: _428  and  _430
REMARK  184  A    between atoms: _430  and  _431
REMARK  185  A    between atoms: _430  and  _433
REMARK  186  A    between atoms: _433  and  _434
REMARK  187  A    between atoms: _437  and  _439
REMARK  188  A    between atoms: _439  and  _440
REMARK  189  A    between atoms: _439  and  _442
REMARK  190  A    between atoms: _442  and  _443
REMARK  191  A    between atoms: _446  and  _448
REMARK  192  A    between atoms: _448  and  _449
REMARK  193  A    between atoms: _448  and  _451
REMARK  194  A    between atoms: _451  and  _452
REMARK  195  A    between atoms: _455  and  _457
REMARK  196  A    between atoms: _457  and  _458
REMARK  197  A    between atoms: _457  and  _460
REMARK  198  A    between atoms: _460  and  _461
REMARK  199  A    between atoms: _464  and  _466
REMARK  200  A    between atoms: _466  and  _467
REMARK  201  A    between atoms: _466  and  _469
REMARK  202  A    between atoms: _469  and  _470
REMARK  203  A    between atoms: _470  and  _471
REMARK  204  A    between atoms: _471  and  _472
REMARK  205  A    between atoms: _472  and  _473
REMARK  206  A    between atoms: _477  and  _479
REMARK  207  A    between atoms: _479  and  _480
REMARK  208  A    between atoms: _482  and  _484
REMARK  209  A    between atoms: _484  and  _485
REMARK  210  A    between atoms: _484  and  _487
REMARK  211  A    between atoms: _487  and  _488
REMARK  212  A    between atoms: _493  and  _494
REMARK  213  A    between atoms: _496  and  _498
REMARK  214  A    between atoms: _498  and  _499
REMARK  215  A    between atoms: _501  and  _503
REMARK  216  A    between atoms: _503  and  _504
REMARK  217  A    between atoms: _503  and  _506
REMARK  218  A    between atoms: _506  and  _507
REMARK                            x       y       z     vdW  Elec       q    Type
REMARK                         _______ _______ _______ _____ _____    ______ ____
ROOT
ATOM      1  C   GLU A   3      11.278  32.150  20.799  0.00  0.00    +0.241 C 
ATOM      2  N   GLU A   4      12.022  31.295  21.490  0.00  0.00    -0.297 N 
ATOM      3  H   GLU A   4      11.565  30.689  22.201  0.00  0.00    +0.150 HD
ATOM      4  O   GLU A   3      11.739  32.886  19.931  0.00  0.00    -0.273 OA
ENDROOT
BRANCH   2   5
ATOM      5  CA  GLU A   4      13.458  31.180  21.283  0.00  0.00    +0.149 C 
BRANCH   5   6
ATOM      6  C   GLU A   4      13.761  30.583  19.903  0.00  0.00    +0.244 C 
ATOM      7  O   GLU A   4      13.132  29.603  19.510  0.00  0.00    -0.273 OA
ATOM      8  N   PRO A   5      14.730  31.160  19.160  0.00  0.00    -0.272 N 
ATOM      9  CA  PRO A   5      15.595  32.289  19.517  0.00  0.00    +0.152 C 
ATOM     10  CB  PRO A   5      16.917  31.878  18.896  0.00  0.00    +0.031 C 
ATOM     11  CG  PRO A   5      16.468  31.272  17.560  0.00  0.00    +0.024 C 
ATOM     12  CD  PRO A   5      15.144  30.568  17.872  0.00  0.00    +0.094 C 
BRANCH   9  13
ATOM     13  C   PRO A   5      15.143  33.562  18.834  0.00  0.00    +0.241 C 
ATOM     14  O   PRO A   5      15.968  34.462  18.618  0.00  0.00    -0.273 OA
ATOM     15  N   PHE A   6      13.865  33.636  18.473  0.00  0.00    -0.298 N 
ATOM     16  H   PHE A   6      13.216  32.858  18.710  0.00  0.00    +0.150 HD
BRANCH  15  17
ATOM     17  CA  PHE A   6      13.365  34.800  17.747  0.00  0.00    +0.141 C 
BRANCH  17  18
ATOM     18  C   PHE A   6      13.113  35.986  18.661  0.00  0.00    +0.227 C 
ATOM     19  O   PHE A   6      13.494  37.114  18.356  0.00  0.00    -0.286 OA
ENDBRANCH  17  18
BRANCH  17  20
ATOM     20  CB  PHE A   6      12.069  34.459  17.010  0.00  0.00    +0.054 C 
BRANCH  20  21
ATOM     21  CG  PHE A   6      12.249  33.456  15.905  0.00  0.00    -0.020 A 
ATOM     22  CD2 PHE A   6      12.038  32.100  16.137  0.00  0.00    -0.004 A 
ATOM     23  CE2 PHE A   6      12.198  31.166  15.105  0.00  0.00    -0.000 A 
ATOM     24  CZ  PHE A   6      12.571  31.601  13.839  0.00  0.00    -0.000 A 
ATOM     25  CE1 PHE A   6      12.785  32.953  13.604  0.00  0.00    -0.000 A 
ATOM     26  CD1 PHE A   6      12.622  33.873  14.636  0.00  0.00    -0.004 A 
ENDBRANCH  20  21
ENDBRANCH  17  20
ENDBRANCH  15  17
ENDBRANCH   9  13
ENDBRANCH   5   6
BRANCH   5  27
ATOM     27  CB  GLU A   4      14.032  30.294  22.392  0.00  0.00    +0.041 C 
BRANCH  27  28
ATOM     28  CG  GLU A   4      15.517  30.117  22.346  0.00  0.00    +0.116 C 
BRANCH  28  29
ATOM     29  CD  GLU A   4      16.023  29.361  23.550  0.00  0.00    +0.365 C 
ATOM     30  OE2 GLU A   4      15.196  29.053  24.439  0.00  0.00    -0.246 OA
ATOM     31  OE1 GLU A   4      17.237  29.072  23.600  0.00  0.00    -0.246 OA
ENDBRANCH  28  29
ENDBRANCH  27  28
ENDBRANCH   5  27
ENDBRANCH   2   5
BRANCH   1  32
ATOM     32  CA  GLU A   3       9.798  32.177  21.139  0.00  0.00    +0.149 C 
BRANCH  32  35
ATOM     33  C   LEU A   2       8.422  33.470  22.660  0.00  0.00    +0.241 C 
ATOM     34  O   LEU A   2       7.594  32.569  22.733  0.00  0.00    -0.273 OA
ATOM     35  N   GLU A   3       9.529  33.367  21.936  0.00  0.00    -0.297 N 
ATOM     36  H   GLU A   3      10.216  34.148  21.937  0.00  0.00    +0.150 HD
BRANCH  33  37
ATOM     37  CA  LEU A   2       8.204  34.783  23.396  0.00  0.00    +0.149 C 
BRANCH  37  39
ATOM     38  C   LEU A   1       6.746  35.884  21.816  0.00  0.00    +0.238 C 
ATOM     39  N   LEU A   2       6.900  35.324  23.010  0.00  0.00    -0.297 N 
ATOM     40  H   LEU A   2       6.097  35.270  23.669  0.00  0.00    +0.150 HD
ATOM     41  O   LEU A   1       7.671  36.022  21.030  0.00  0.00    -0.274 OA
BRANCH  38  42
ATOM     42  CA  LEU A   1       5.366  36.361  21.428  0.00  0.00    +0.145 C 
BRANCH  42  43
ATOM     43  N   LEU A   1       5.584  37.551  20.621  0.00  0.00    -0.238 NA
ATOM     44  H   LEU A   1       6.432  37.596  20.021  0.00  0.00    +0.142 HD
ENDBRANCH  42  43
BRANCH  42  45
ATOM     45  CB  LEU A   1       4.720  35.281  20.556  0.00  0.00    +0.026 C 
BRANCH  45  46
ATOM     46  CG  LEU A   1       3.256  34.977  20.826  0.00  0.00    +0.002 C 
ATOM     47  CD2 LEU A   1       3.128  34.657  22.274  0.00  0.00    +0.000 C 
ATOM     48  CD1 LEU A   1       2.740  33.826  19.990  0.00  0.00    +0.000 C 
ENDBRANCH  45  46
ENDBRANCH  42  45
ENDBRANCH  38  42
ENDBRANCH  37  39
BRANCH  37  49
ATOM     49  CB  LEU A   2       8.289  34.555  24.906  0.00  0.00    +0.029 C 
BRANCH  49  50
ATOM     50  CG  LEU A   2       8.283  35.774  25.836  0.00  0.00    +0.002 C 
ATOM     51  CD2 LEU A   2       8.408  35.342  27.301  0.00  0.00    +0.000 C 
ATOM     52  CD1 LEU A   2       9.382  36.748  25.469  0.00  0.00    +0.000 C 
ENDBRANCH  49  50
ENDBRANCH  37  49
ENDBRANCH  33  37
ENDBRANCH  32  35
BRANCH  32  53
ATOM     53  CB  GLU A   3       8.979  32.206  19.844  0.00  0.00    +0.041 C 
BRANCH  53  54
ATOM     54  CG  GLU A   3       8.859  30.847  19.155  0.00  0.00    +0.116 C 
BRANCH  54  55
ATOM     55  CD  GLU A   3       7.970  29.892  19.943  0.00  0.00    +0.365 C 
ATOM     56  OE2 GLU A   3       8.520  29.027  20.654  0.00  0.00    -0.246 OA
ATOM     57  OE1 GLU A   3       6.723  30.025  19.871  0.00  0.00    -0.246 OA
ENDBRANCH  54  55
ENDBRANCH  53  54
ENDBRANCH  32  53
ENDBRANCH   1  32
TORSDOF 23
REMARK  Name = ../refined-set-2016/4nwc/4nwc_pocket.pdb
REMARK  218 active torsions:
REMARK  status: ('A' for Active; 'I' for Inactive)
REMARK    1  A    between atoms: _1  and  _3
REMARK    2  A    between atoms: _3  and  _4
REMARK    3  A    between atoms: _3  and  _6
REMARK    4  A    between atoms: _6  and  _7
REMARK    5  A    between atoms: _10  and  _12
REMARK    6  A    between atoms: _12  and  _13
REMARK    7  A    between atoms: _12  and  _15
REMARK    8  A    between atoms: _15  and  _16
REMARK    9  A    between atoms: _19  and  _21
REMARK   10  A    between atoms: _21  and  _22
REMARK   11  A    between atoms: _21  and  _24
REMARK   12  A    between atoms: _24  and  _25
REMARK   13  A    between atoms: _25  and  _26
REMARK   14  A    between atoms: _29  and  _31
REMARK   15  A    between atoms: _31  and  _32
REMARK   16  A    between atoms: _31  and  _34
REMARK   17  A    between atoms: _34  and  _35
REMARK   18  A    between atoms: _35  and  _36
REMARK   19  A    between atoms: _40  and  _41
REMARK   20  A    between atoms: _46  and  _48
REMARK   21  A    between atoms: _48  and  _49
REMARK   22  A    between atoms: _48  and  _51
REMARK   23  A    between atoms: _51  and  _52
REMARK   24  A    between atoms: _58  and  _60
REMARK   25  A    between atoms: _60  and  _61
REMARK   26  A    between atoms: _60  and  _63
REMARK   27  A    between atoms: _63  and  _64
REMARK   28  A    between atoms: _64  and  _65
REMARK   29  A    between atoms: _65  and  _66
REMARK   30  A    between atoms: _66  and  _67
REMARK   31  A    between atoms: _71  and  _73
REMARK   32  A    between atoms: _73  and  _74
REMARK   33  A    between atoms: _73  and  _76
REMARK   34  A    between atoms: _76  and  _77
REMARK   35  A    between atoms: _82  and  _83
REMARK   36  A    between atoms: _85  and  _87
REMARK   37  A    between atoms: _87  and  _88
REMARK   38  A    between atoms: _90  and  _92
REMARK   39  A    between atoms: _92  and  _93
REMARK   40  A    between atoms: _96  and  _98
REMARK   41  A    between atoms: _98  and  _99
REMARK   42  A    between atoms: _98  and  _101
REMARK   43  A    between atoms: _101  and  _102
REMARK   44  A    between atoms: _102  and  _103
REMARK   45  A    between atoms: _105  and  _107
REMARK   46  A    between atoms: _107  and  _108
REMARK   47  A    between atoms: _107  and  _110
REMARK   48  A    between atoms: _113  and  _115
REMARK   49  A    between atoms: _115  and  _116
REMARK   50  A    between atoms: _120  and  _121
REMARK   51  A    between atoms: _126  and  _128
REMARK   52  A    between atoms: _128  and  _129
REMARK   53  A    between atoms: _128  and  _131
REMARK   54  A    between atoms: _131  and  _132
REMARK   55  A    between atoms: _135  and  _137
REMARK   56  A    between atoms: _137  and  _138
REMARK   57  A    between atoms: _137  and  _140
REMARK   58  A    between atoms: _140  and  _141
REMARK   59  A    between atoms: _144  and  _146
REMARK   60  A    between atoms: _146  and  _147
REMARK   61  A    between atoms: _146  and  _149
REMARK   62  A    between atoms: _149  and  _150
REMARK   63  A    between atoms: _153  and  _155
REMARK   64  A    between atoms: _155  and  _156
REMARK   65  A    between atoms: _155  and  _158
REMARK   66  A    between atoms: _158  and  _159
REMARK   67  A    between atoms: _162  and  _164
REMARK   68  A    between atoms: _164  and  _165
REMARK   69  A    between atoms: _164  and  _167
REMARK   70  A    between atoms: _167  and  _168
REMARK   71  A    between atoms: _168  and  _169
REMARK   72  A    between atoms: _169  and  _170
REMARK   73  A    between atoms: _179  and  _181
REMARK   74  A    between atoms: _181  and  _182
REMARK   75  A    between atoms: _181  and  _184
REMARK   76  A    between atoms: _184  and  _185
REMARK   77  A    between atoms: _191  and  _193
REMARK   78  A    between atoms: _193  and  _194
REMARK   79  A    between atoms: _193  and  _196
REMARK   80  A    between atoms: _196  and  _197
REMARK   81  A    between atoms: _197  and  _198
REMARK   82  A    between atoms: _200  and  _202
REMARK   83  A    between atoms: _202  and  _203
REMARK   84  A    between atoms: _202  and  _205
REMARK   85  A    between atoms: _205  and  _206
REMARK   86  A    between atoms: _209  and  _211
REMARK   87  A    between atoms: _211  and  _212
REMARK   88  A    between atoms: _214  and  _216
REMARK   89  A    between atoms: _216  and  _217
REMARK   90  A    between atoms: _216  and  _219
REMARK   91  A    between atoms: _222  and  _224
REMARK   92  A    between atoms: _224  and  _225
REMARK   93  A    between atoms: _224  and  _227
REMARK   94  A    between atoms: _227  and  _228
REMARK   95  A    between atoms: _230  and  _232
REMARK   96  A    between atoms: _232  and  _233
REMARK   97  A    between atoms: _235  and  _237
REMARK   98  A    between atoms: _237  and  _238
REMARK   99  A    between atoms: _241  and  _243
REMARK  100  A    between atoms: _243  and  _244
REMARK  101  A    between atoms: _243  and  _246
REMARK  102  A    between atoms: _249  and  _251
REMARK  103  A    between atoms: _251  and  _252
REMARK  104  A    between atoms: _251  and  _254
REMARK  105  A    between atoms: _254  and  _255
REMARK  106  A    between atoms: _255  and  _256
REMARK  107  A    between atoms: _256  and  _257
REMARK  108  A    between atoms: _257  and  _258
REMARK  109  A    between atoms: _262  and  _264
REMARK  110  A    between atoms: _264  and  _265
REMARK  111  A    between atoms: _264  and  _267
REMARK  112  A    between atoms: _267  and  _268
REMARK  113  A    between atoms: _271  and  _273
REMARK  114  A    between atoms: _273  and  _274
REMARK  115  A    between atoms: _276  and  _278
REMARK  116  A    between atoms: _278  and  _279
REMARK  117  A    between atoms: _282  and  _284
REMARK  118  A    between atoms: _284  and  _285
REMARK  119  A    between atoms: _284  and  _287
REMARK  120  A    between atoms: _287  and  _288
REMARK  121  A    between atoms: _291  and  _293
REMARK  122  A    between atoms: _293  and  _294
REMARK  123  A    between atoms: _293  and  _296
REMARK  124  A    between atoms: _296  and  _297
REMARK  125  A    between atoms: _297  and  _298
REMARK  126  A    between atoms: _300  and  _302
REMARK  127  A    between atoms: _302  and  _303
REMARK  128  A    between atoms: _302  and  _305
REMARK  129  A    between atoms: _305  and  _306
REMARK  130  A    between atoms: _309  and  _311
REMARK  131  A    between atoms: _311  and  _312
REMARK  132  A    between atoms: _311  and  _314
REMARK  133  A    between atoms: _314  and  _315
REMARK  134  A    between atoms: _321  and  _323
REMARK  135  A    between atoms: _323  and  _324
REMARK  136  A    between atoms: _323  and  _326
REMARK  137  A    between atoms: _329  and  _331
REMARK  138  A    between atoms: _331  and  _332
REMARK  139  A    between atoms: _331  and  _334
REMARK  140  A    between atoms: _334  and  _335
REMARK  141  A    between atoms: _335  and  _336
REMARK  142  A    between atoms: _336  and  _337
REMARK  143  A    between atoms: _337  and  _338
REMARK  144  A    between atoms: _342  and  _344
REMARK  145  A    between atoms: _344  and  _345
REMARK  146  A    between atoms: _344  and  _347
REMARK  147  A    between atoms: _347  and  _348
REMARK  148  A    between atoms: _353  and  _355
REMARK  149  A    between atoms: _355  and  _356
REMARK  150  A    between atoms: _355  and  _358
REMARK  151  A    between atoms: _358  and  _359
REMARK  152  A    between atoms: _364  and  _366
REMARK  153  A    between atoms: _366  and  _367
REMARK  154  A    between atoms: _366  and  _369
REMARK  155  A    between atoms: _369  and  _370
REMARK  156  A    between atoms: _370  and  _371
REMARK  157  A    between atoms: _374  and  _376
REMARK  158  A    between atoms: _376  and  _377
REMARK  159  A    between atoms: _376  and  _379
REMARK  160  A    between atoms: _379  and  _380
REMARK  161  A    between atoms: _383  and  _385
REMARK  162  A    between atoms: _385  and  _386
REMARK  163  A    between atoms: _385  and  _388
REMARK  164  A    between atoms: _388  and  _389
REMARK  165  A    between atoms: _392  and  _394
REMARK  166  A    between atoms: _394  and  _395
REMARK  167  A    between atoms: _394  and  _397
REMARK  168  A    between atoms: _397  and  _398
REMARK  169  A    between atoms: _401  and  _403
REMARK  170  A    between atoms: _403  and  _404
REMARK  171  A    between atoms: _403  and  _406
REMARK  172  A    between atoms: _406  and  _407
REMARK  173  A    between atoms: _407  and  _408
REMARK  174  A    between atoms: _410  and  _412
REMARK  175  A    between atoms: _412  and  _413
REMARK  176  A    between atoms: _412  and  _415
REMARK  177  A    between atoms: _415  and  _416
REMARK  178  A    between atoms: _416  and  _417
REMARK  179  A    between atoms: _420  and  _422
REMARK  180  A    between atoms: _422  and  _423
REMARK  181  A    between atoms: _422  and  _425
REMARK  182  A    between atoms: _425  and  _426
REMARK  183  A    between atoms: _428  and  _430
REMARK  184  A    between atoms: _430  and  _431
REMARK  185  A    between atoms: _430  and  _433
REMARK  186  A    between atoms: _433  and  _434
REMARK  187  A    between atoms: _437  and  _439
REMARK  188  A    between atoms: _439  and  _440
REMARK  189  A    between atoms: _439  and  _442
REMARK  190  A    between atoms: _442  and  _443
REMARK  191  A    between atoms: _446  and  _448
REMARK  192  A    between atoms: _448  and  _449
REMARK  193  A    between atoms: _448  and  _451
REMARK  194  A    between atoms: _451  and  _452
REMARK  195  A    between atoms: _455  and  _457
REMARK  196  A    between atoms: _457  and  _458
REMARK  197  A    between atoms: _457  and  _460
REMARK  198  A    between atoms: _460  and  _461
REMARK  199  A    between atoms: _464  and  _466
REMARK  200  A    between atoms: _466  and  _467
REMARK  201  A    between atoms: _466  and  _469
REMARK  202  A    between atoms: _469  and  _470
REMARK  203  A    between atoms: _470  and  _471
REMARK  204  A    between atoms: _471  and  _472
REMARK  205  A    between atoms: _472  and  _473
REMARK  206  A    between atoms: _477  and  _479
REMARK  207  A    between atoms: _479  and  _480
REMARK  208  A    between atoms: _482  and  _484
REMARK  209  A    between atoms: _484  and  _485
REMARK  210  A    between atoms: _484  and  _487
REMARK  211  A    between atoms: _487  and  _488
REMARK  212  A    between atoms: _493  and  _494
REMARK  213  A    between atoms: _496  and  _498
REMARK  214  A    between atoms: _498  and  _499
REMARK  215  A    between atoms: _501  and  _503
REMARK  216  A    between atoms: _503  and  _504
REMARK  217  A    between atoms: _503  and  _506
REMARK  218  A    between atoms: _506  and  _507
REMARK                            x       y       z     vdW  Elec       q    Type
REMARK                         _______ _______ _______ _____ _____    ______ ____
ROOT
ATOM      1  CA  TYR A   2      -0.105  33.062  16.988  0.00  0.00    +0.153 C 
ENDROOT
BRANCH   1   4
ATOM      2  C   LYS A   1      -0.747  33.334  19.311  0.00  0.00    +0.238 C 
ATOM      3  O   LYS A   1      -0.688  34.560  19.216  0.00  0.00    -0.274 OA
ATOM      4  N   TYR A   2      -0.460  32.522  18.296  0.00  0.00    -0.297 N 
ATOM      5  H   TYR A   2      -0.489  31.492  18.437  0.00  0.00    +0.150 HD
BRANCH   2   6
ATOM      6  CA  LYS A   1      -1.179  32.664  20.616  0.00  0.00    +0.145 C 
BRANCH   6   7
ATOM      7  N   LYS A   1      -0.894  33.482  21.797  0.00  0.00    -0.238 NA
ATOM      8  H   LYS A   1      -1.453  34.344  21.957  0.00  0.00    +0.142 HD
ENDBRANCH   6   7
BRANCH   6   9
ATOM      9  CB  LYS A   1      -2.675  32.346  20.532  0.00  0.00    +0.026 C 
BRANCH   9  10
ATOM     10  CG  LYS A   1      -3.206  31.423  21.621  0.00  0.00    -0.000 C 
BRANCH  10  11
ATOM     11  CD  LYS A   1      -4.723  31.325  21.543  0.00  0.00    -0.024 C 
BRANCH  11  12
ATOM     12  CE  LYS A   1      -5.281  30.377  22.598  0.00  0.00    -0.086 C 
BRANCH  12  13
ATOM     13  NZ  LYS A   1      -4.846  28.968  22.373  0.00  0.00    +0.380 N 
ATOM     14  HZ1 LYS A   1      -5.249  28.360  23.114  0.00  0.00    -0.089 HD
ATOM     15  HZ2 LYS A   1      -3.808  28.917  22.408  0.00  0.00    -0.089 HD
ATOM     16  HZ3 LYS A   1      -5.179  28.648  21.441  0.00  0.00    -0.089 HD
ENDBRANCH  12  13
ENDBRANCH  11  12
ENDBRANCH  10  11
ENDBRANCH   9  10
ENDBRANCH   6   9
ENDBRANCH   2   6
ENDBRANCH   1   4
BRANCH   1  17
ATOM     17  C   TYR A   2      -1.373  33.520  16.277  0.00  0.00    +0.241 C 
ATOM     18  N   GLY A   3      -2.327  32.609  16.106  0.00  0.00    -0.295 N 
ATOM     19  H   GLY A   3      -2.134  31.612  16.332  0.00  0.00    +0.150 HD
ATOM     20  O   TYR A   2      -1.489  34.686  15.901  0.00  0.00    -0.273 OA
BRANCH  18  21
ATOM     21  CA  GLY A   3      -3.635  32.994  15.607  0.00  0.00    +0.176 C 
BRANCH  21  22
ATOM     22  C   GLY A   3      -4.314  31.964  14.722  0.00  0.00    +0.243 C 
ATOM     23  N   ALA A   4      -5.538  31.599  15.079  0.00  0.00    -0.298 N 
ATOM     24  H   ALA A   4      -5.935  31.959  15.970  0.00  0.00    +0.150 HD
ATOM     25  O   GLY A   3      -3.745  31.501  13.740  0.00  0.00    -0.273 OA
BRANCH  23  26
ATOM     26  CA  ALA A   4      -6.338  30.709  14.255  0.00  0.00    +0.137 C 
ATOM     27  CB  ALA A   4      -6.084  29.246  14.621  0.00  0.00    +0.030 C 
BRANCH  26  28
ATOM     28  C   ALA A   4      -7.801  31.060  14.448  0.00  0.00    +0.227 C 
ATOM     29  O   ALA A   4      -8.133  31.875  15.315  0.00  0.00    -0.286 OA
ENDBRANCH  26  28
ENDBRANCH  23  26
ENDBRANCH  21  22
ENDBRANCH  18  21
ENDBRANCH   1  17
BRANCH   1  30
ATOM     30  CB  TYR A   2       0.675  32.036  16.163  0.00  0.00    +0.055 C 
BRANCH  30  31
ATOM     31  CG  TYR A   2       2.100  31.900  16.646  0.00  0.00    -0.020 A 
ATOM     32  CD2 TYR A   2       2.418  31.027  17.680  0.00  0.00    -0.001 A 
ATOM     33  CE2 TYR A   2       3.715  30.906  18.145  0.00  0.00    +0.036 A 
ATOM     34  CZ  TYR A   2       4.710  31.674  17.585  0.00  0.00    +0.134 A 
ATOM     35  CE1 TYR A   2       4.426  32.560  16.558  0.00  0.00    +0.036 A 
ATOM     36  CD1 TYR A   2       3.123  32.672  16.097  0.00  0.00    -0.001 A 
BRANCH  34  37
ATOM     37  OH  TYR A   2       5.992  31.543  18.057  0.00  0.00    -0.506 OA
ATOM     38  HH  TYR A   2       6.008  30.871  18.784  0.00  0.00    +0.292 HD
ENDBRANCH  34  37
ENDBRANCH  30  31
ENDBRANCH   1  30
TORSDOF 16
REMARK  Name = ../refined-set-2016/4nwc/4nwc_pocket.pdb
REMARK  218 active torsions:
REMARK  status: ('A' for Active; 'I' for Inactive)
REMARK    1  A    between atoms: _1  and  _3
REMARK    2  A    between atoms: _3  and  _4
REMARK    3  A    between atoms: _3  and  _6
REMARK    4  A    between atoms: _6  and  _7
REMARK    5  A    between atoms: _10  and  _12
REMARK    6  A    between atoms: _12  and  _13
REMARK    7  A    between atoms: _12  and  _15
REMARK    8  A    between atoms: _15  and  _16
REMARK    9  A    between atoms: _19  and  _21
REMARK   10  A    between atoms: _21  and  _22
REMARK   11  A    between atoms: _21  and  _24
REMARK   12  A    between atoms: _24  and  _25
REMARK   13  A    between atoms: _25  and  _26
REMARK   14  A    between atoms: _29  and  _31
REMARK   15  A    between atoms: _31  and  _32
REMARK   16  A    between atoms: _31  and  _34
REMARK   17  A    between atoms: _34  and  _35
REMARK   18  A    between atoms: _35  and  _36
REMARK   19  A    between atoms: _40  and  _41
REMARK   20  A    between atoms: _46  and  _48
REMARK   21  A    between atoms: _48  and  _49
REMARK   22  A    between atoms: _48  and  _51
REMARK   23  A    between atoms: _51  and  _52
REMARK   24  A    between atoms: _58  and  _60
REMARK   25  A    between atoms: _60  and  _61
REMARK   26  A    between atoms: _60  and  _63
REMARK   27  A    between atoms: _63  and  _64
REMARK   28  A    between atoms: _64  and  _65
REMARK   29  A    between atoms: _65  and  _66
REMARK   30  A    between atoms: _66  and  _67
REMARK   31  A    between atoms: _71  and  _73
REMARK   32  A    between atoms: _73  and  _74
REMARK   33  A    between atoms: _73  and  _76
REMARK   34  A    between atoms: _76  and  _77
REMARK   35  A    between atoms: _82  and  _83
REMARK   36  A    between atoms: _85  and  _87
REMARK   37  A    between atoms: _87  and  _88
REMARK   38  A    between atoms: _90  and  _92
REMARK   39  A    between atoms: _92  and  _93
REMARK   40  A    between atoms: _96  and  _98
REMARK   41  A    between atoms: _98  and  _99
REMARK   42  A    between atoms: _98  and  _101
REMARK   43  A    between atoms: _101  and  _102
REMARK   44  A    between atoms: _102  and  _103
REMARK   45  A    between atoms: _105  and  _107
REMARK   46  A    between atoms: _107  and  _108
REMARK   47  A    between atoms: _107  and  _110
REMARK   48  A    between atoms: _113  and  _115
REMARK   49  A    between atoms: _115  and  _116
REMARK   50  A    between atoms: _120  and  _121
REMARK   51  A    between atoms: _126  and  _128
REMARK   52  A    between atoms: _128  and  _129
REMARK   53  A    between atoms: _128  and  _131
REMARK   54  A    between atoms: _131  and  _132
REMARK   55  A    between atoms: _135  and  _137
REMARK   56  A    between atoms: _137  and  _138
REMARK   57  A    between atoms: _137  and  _140
REMARK   58  A    between atoms: _140  and  _141
REMARK   59  A    between atoms: _144  and  _146
REMARK   60  A    between atoms: _146  and  _147
REMARK   61  A    between atoms: _146  and  _149
REMARK   62  A    between atoms: _149  and  _150
REMARK   63  A    between atoms: _153  and  _155
REMARK   64  A    between atoms: _155  and  _156
REMARK   65  A    between atoms: _155  and  _158
REMARK   66  A    between atoms: _158  and  _159
REMARK   67  A    between atoms: _162  and  _164
REMARK   68  A    between atoms: _164  and  _165
REMARK   69  A    between atoms: _164  and  _167
REMARK   70  A    between atoms: _167  and  _168
REMARK   71  A    between atoms: _168  and  _169
REMARK   72  A    between atoms: _169  and  _170
REMARK   73  A    between atoms: _179  and  _181
REMARK   74  A    between atoms: _181  and  _182
REMARK   75  A    between atoms: _181  and  _184
REMARK   76  A    between atoms: _184  and  _185
REMARK   77  A    between atoms: _191  and  _193
REMARK   78  A    between atoms: _193  and  _194
REMARK   79  A    between atoms: _193  and  _196
REMARK   80  A    between atoms: _196  and  _197
REMARK   81  A    between atoms: _197  and  _198
REMARK   82  A    between atoms: _200  and  _202
REMARK   83  A    between atoms: _202  and  _203
REMARK   84  A    between atoms: _202  and  _205
REMARK   85  A    between atoms: _205  and  _206
REMARK   86  A    between atoms: _209  and  _211
REMARK   87  A    between atoms: _211  and  _212
REMARK   88  A    between atoms: _214  and  _216
REMARK   89  A    between atoms: _216  and  _217
REMARK   90  A    between atoms: _216  and  _219
REMARK   91  A    between atoms: _222  and  _224
REMARK   92  A    between atoms: _224  and  _225
REMARK   93  A    between atoms: _224  and  _227
REMARK   94  A    between atoms: _227  and  _228
REMARK   95  A    between atoms: _230  and  _232
REMARK   96  A    between atoms: _232  and  _233
REMARK   97  A    between atoms: _235  and  _237
REMARK   98  A    between atoms: _237  and  _238
REMARK   99  A    between atoms: _241  and  _243
REMARK  100  A    between atoms: _243  and  _244
REMARK  101  A    between atoms: _243  and  _246
REMARK  102  A    between atoms: _249  and  _251
REMARK  103  A    between atoms: _251  and  _252
REMARK  104  A    between atoms: _251  and  _254
REMARK  105  A    between atoms: _254  and  _255
REMARK  106  A    between atoms: _255  and  _256
REMARK  107  A    between atoms: _256  and  _257
REMARK  108  A    between atoms: _257  and  _258
REMARK  109  A    between atoms: _262  and  _264
REMARK  110  A    between atoms: _264  and  _265
REMARK  111  A    between atoms: _264  and  _267
REMARK  112  A    between atoms: _267  and  _268
REMARK  113  A    between atoms: _271  and  _273
REMARK  114  A    between atoms: _273  and  _274
REMARK  115  A    between atoms: _276  and  _278
REMARK  116  A    between atoms: _278  and  _279
REMARK  117  A    between atoms: _282  and  _284
REMARK  118  A    between atoms: _284  and  _285
REMARK  119  A    between atoms: _284  and  _287
REMARK  120  A    between atoms: _287  and  _288
REMARK  121  A    between atoms: _291  and  _293
REMARK  122  A    between atoms: _293  and  _294
REMARK  123  A    between atoms: _293  and  _296
REMARK  124  A    between atoms: _296  and  _297
REMARK  125  A    between atoms: _297  and  _298
REMARK  126  A    between atoms: _300  and  _302
REMARK  127  A    between atoms: _302  and  _303
REMARK  128  A    between atoms: _302  and  _305
REMARK  129  A    between atoms: _305  and  _306
REMARK  130  A    between atoms: _309  and  _311
REMARK  131  A    between atoms: _311  and  _312
REMARK  132  A    between atoms: _311  and  _314
REMARK  133  A    between atoms: _314  and  _315
REMARK  134  A    between atoms: _321  and  _323
REMARK  135  A    between atoms: _323  and  _324
REMARK  136  A    between atoms: _323  and  _326
REMARK  137  A    between atoms: _329  and  _331
REMARK  138  A    between atoms: _331  and  _332
REMARK  139  A    between atoms: _331  and  _334
REMARK  140  A    between atoms: _334  and  _335
REMARK  141  A    between atoms: _335  and  _336
REMARK  142  A    between atoms: _336  and  _337
REMARK  143  A    between atoms: _337  and  _338
REMARK  144  A    between atoms: _342  and  _344
REMARK  145  A    between atoms: _344  and  _345
REMARK  146  A    between atoms: _344  and  _347
REMARK  147  A    between atoms: _347  and  _348
REMARK  148  A    between atoms: _353  and  _355
REMARK  149  A    between atoms: _355  and  _356
REMARK  150  A    between atoms: _355  and  _358
REMARK  151  A    between atoms: _358  and  _359
REMARK  152  A    between atoms: _364  and  _366
REMARK  153  A    between atoms: _366  and  _367
REMARK  154  A    between atoms: _366  and  _369
REMARK  155  A    between atoms: _369  and  _370
REMARK  156  A    between atoms: _370  and  _371
REMARK  157  A    between atoms: _374  and  _376
REMARK  158  A    between atoms: _376  and  _377
REMARK  159  A    between atoms: _376  and  _379
REMARK  160  A    between atoms: _379  and  _380
REMARK  161  A    between atoms: _383  and  _385
REMARK  162  A    between atoms: _385  and  _386
REMARK  163  A    between atoms: _385  and  _388
REMARK  164  A    between atoms: _388  and  _389
REMARK  165  A    between atoms: _392  and  _394
REMARK  166  A    between atoms: _394  and  _395
REMARK  167  A    between atoms: _394  and  _397
REMARK  168  A    between atoms: _397  and  _398
REMARK  169  A    between atoms: _401  and  _403
REMARK  170  A    between atoms: _403  and  _404
REMARK  171  A    between atoms: _403  and  _406
REMARK  172  A    between atoms: _406  and  _407
REMARK  173  A    between atoms: _407  and  _408
REMARK  174  A    between atoms: _410  and  _412
REMARK  175  A    between atoms: _412  and  _413
REMARK  176  A    between atoms: _412  and  _415
REMARK  177  A    between atoms: _415  and  _416
REMARK  178  A    between atoms: _416  and  _417
REMARK  179  A    between atoms: _420  and  _422
REMARK  180  A    between atoms: _422  and  _423
REMARK  181  A    between atoms: _422  and  _425
REMARK  182  A    between atoms: _425  and  _426
REMARK  183  A    between atoms: _428  and  _430
REMARK  184  A    between atoms: _430  and  _431
REMARK  185  A    between atoms: _430  and  _433
REMARK  186  A    between atoms: _433  and  _434
REMARK  187  A    between atoms: _437  and  _439
REMARK  188  A    between atoms: _439  and  _440
REMARK  189  A    between atoms: _439  and  _442
REMARK  190  A    between atoms: _442  and  _443
REMARK  191  A    between atoms: _446  and  _448
REMARK  192  A    between atoms: _448  and  _449
REMARK  193  A    between atoms: _448  and  _451
REMARK  194  A    between atoms: _451  and  _452
REMARK  195  A    between atoms: _455  and  _457
REMARK  196  A    between atoms: _457  and  _458
REMARK  197  A    between atoms: _457  and  _460
REMARK  198  A    between atoms: _460  and  _461
REMARK  199  A    between atoms: _464  and  _466
REMARK  200  A    between atoms: _466  and  _467
REMARK  201  A    between atoms: _466  and  _469
REMARK  202  A    between atoms: _469  and  _470
REMARK  203  A    between atoms: _470  and  _471
REMARK  204  A    between atoms: _471  and  _472
REMARK  205  A    between atoms: _472  and  _473
REMARK  206  A    between atoms: _477  and  _479
REMARK  207  A    between atoms: _479  and  _480
REMARK  208  A    between atoms: _482  and  _484
REMARK  209  A    between atoms: _484  and  _485
REMARK  210  A    between atoms: _484  and  _487
REMARK  211  A    between atoms: _487  and  _488
REMARK  212  A    between atoms: _493  and  _494
REMARK  213  A    between atoms: _496  and  _498
REMARK  214  A    between atoms: _498  and  _499
REMARK  215  A    between atoms: _501  and  _503
REMARK  216  A    between atoms: _503  and  _504
REMARK  217  A    between atoms: _503  and  _506
REMARK  218  A    between atoms: _506  and  _507
REMARK                            x       y       z     vdW  Elec       q    Type
REMARK                         _______ _______ _______ _____ _____    ______ ____
ROOT
ATOM      1  C   MET A   1      -2.248  38.491  15.977  0.00  0.00    +0.238 C 
ATOM      2  O   MET A   1      -2.361  39.674  15.648  0.00  0.00    -0.274 OA
ATOM      3  N   VAL A   2      -2.850  37.503  15.317  0.00  0.00    -0.298 N 
ATOM      4  H   VAL A   2      -2.741  36.521  15.642  0.00  0.00    +0.150 HD
ENDROOT
BRANCH   1   5
ATOM      5  CA  MET A   1      -1.407  38.104  17.192  0.00  0.00    +0.146 C 
BRANCH   5   6
ATOM      6  N   MET A   1      -1.946  36.923  17.858  0.00  0.00    -0.238 NA
ATOM      7  H   MET A   1      -1.375  36.055  17.907  0.00  0.00    +0.142 HD
ENDBRANCH   5   6
BRANCH   5   8
ATOM      8  CB  MET A   1       0.045  37.874  16.771  0.00  0.00    +0.038 C 
BRANCH   8   9
ATOM      9  CG  MET A   1       1.042  37.988  17.918  0.00  0.00    +0.060 C 
BRANCH   9  10
ATOM     10  SD  MET A   1       2.714  37.677  17.322  0.00  0.00    -0.139 S 
ATOM     11  CE  MET A   1       2.633  35.909  17.035  0.00  0.00    +0.069 C 
ENDBRANCH   9  10
ENDBRANCH   8   9
ENDBRANCH   5   8
ENDBRANCH   1   5
BRANCH   3  12
ATOM     12  CA  VAL A   2      -3.664  37.795  14.136  0.00  0.00    +0.137 C 
BRANCH  12  13
ATOM     13  CB  VAL A   2      -4.228  36.521  13.471  0.00  0.00    +0.026 C 
ATOM     14  CG2 VAL A   2      -3.101  35.677  12.908  0.00  0.00    +0.002 C 
ATOM     15  CG1 VAL A   2      -5.220  36.873  12.361  0.00  0.00    +0.002 C 
ENDBRANCH  12  13
BRANCH  12  16
ATOM     16  C   VAL A   2      -4.799  38.729  14.528  0.00  0.00    +0.227 C 
ATOM     17  O   VAL A   2      -5.034  39.747  13.868  0.00  0.00    -0.286 OA
ENDBRANCH  12  16
ENDBRANCH   3  12
TORSDOF 8
REMARK  Name = ../refined-set-2016/4nwc/4nwc_pocket.pdb
REMARK  218 active torsions:
REMARK  status: ('A' for Active; 'I' for Inactive)
REMARK    1  A    between atoms: _1  and  _3
REMARK    2  A    between atoms: _3  and  _4
REMARK    3  A    between atoms: _3  and  _6
REMARK    4  A    between atoms: _6  and  _7
REMARK    5  A    between atoms: _10  and  _12
REMARK    6  A    between atoms: _12  and  _13
REMARK    7  A    between atoms: _12  and  _15
REMARK    8  A    between atoms: _15  and  _16
REMARK    9  A    between atoms: _19  and  _21
REMARK   10  A    between atoms: _21  and  _22
REMARK   11  A    between atoms: _21  and  _24
REMARK   12  A    between atoms: _24  and  _25
REMARK   13  A    between atoms: _25  and  _26
REMARK   14  A    between atoms: _29  and  _31
REMARK   15  A    between atoms: _31  and  _32
REMARK   16  A    between atoms: _31  and  _34
REMARK   17  A    between atoms: _34  and  _35
REMARK   18  A    between atoms: _35  and  _36
REMARK   19  A    between atoms: _40  and  _41
REMARK   20  A    between atoms: _46  and  _48
REMARK   21  A    between atoms: _48  and  _49
REMARK   22  A    between atoms: _48  and  _51
REMARK   23  A    between atoms: _51  and  _52
REMARK   24  A    between atoms: _58  and  _60
REMARK   25  A    between atoms: _60  and  _61
REMARK   26  A    between atoms: _60  and  _63
REMARK   27  A    between atoms: _63  and  _64
REMARK   28  A    between atoms: _64  and  _65
REMARK   29  A    between atoms: _65  and  _66
REMARK   30  A    between atoms: _66  and  _67
REMARK   31  A    between atoms: _71  and  _73
REMARK   32  A    between atoms: _73  and  _74
REMARK   33  A    between atoms: _73  and  _76
REMARK   34  A    between atoms: _76  and  _77
REMARK   35  A    between atoms: _82  and  _83
REMARK   36  A    between atoms: _85  and  _87
REMARK   37  A    between atoms: _87  and  _88
REMARK   38  A    between atoms: _90  and  _92
REMARK   39  A    between atoms: _92  and  _93
REMARK   40  A    between atoms: _96  and  _98
REMARK   41  A    between atoms: _98  and  _99
REMARK   42  A    between atoms: _98  and  _101
REMARK   43  A    between atoms: _101  and  _102
REMARK   44  A    between atoms: _102  and  _103
REMARK   45  A    between atoms: _105  and  _107
REMARK   46  A    between atoms: _107  and  _108
REMARK   47  A    between atoms: _107  and  _110
REMARK   48  A    between atoms: _113  and  _115
REMARK   49  A    between atoms: _115  and  _116
REMARK   50  A    between atoms: _120  and  _121
REMARK   51  A    between atoms: _126  and  _128
REMARK   52  A    between atoms: _128  and  _129
REMARK   53  A    between atoms: _128  and  _131
REMARK   54  A    between atoms: _131  and  _132
REMARK   55  A    between atoms: _135  and  _137
REMARK   56  A    between atoms: _137  and  _138
REMARK   57  A    between atoms: _137  and  _140
REMARK   58  A    between atoms: _140  and  _141
REMARK   59  A    between atoms: _144  and  _146
REMARK   60  A    between atoms: _146  and  _147
REMARK   61  A    between atoms: _146  and  _149
REMARK   62  A    between atoms: _149  and  _150
REMARK   63  A    between atoms: _153  and  _155
REMARK   64  A    between atoms: _155  and  _156
REMARK   65  A    between atoms: _155  and  _158
REMARK   66  A    between atoms: _158  and  _159
REMARK   67  A    between atoms: _162  and  _164
REMARK   68  A    between atoms: _164  and  _165
REMARK   69  A    between atoms: _164  and  _167
REMARK   70  A    between atoms: _167  and  _168
REMARK   71  A    between atoms: _168  and  _169
REMARK   72  A    between atoms: _169  and  _170
REMARK   73  A    between atoms: _179  and  _181
REMARK   74  A    between atoms: _181  and  _182
REMARK   75  A    between atoms: _181  and  _184
REMARK   76  A    between atoms: _184  and  _185
REMARK   77  A    between atoms: _191  and  _193
REMARK   78  A    between atoms: _193  and  _194
REMARK   79  A    between atoms: _193  and  _196
REMARK   80  A    between atoms: _196  and  _197
REMARK   81  A    between atoms: _197  and  _198
REMARK   82  A    between atoms: _200  and  _202
REMARK   83  A    between atoms: _202  and  _203
REMARK   84  A    between atoms: _202  and  _205
REMARK   85  A    between atoms: _205  and  _206
REMARK   86  A    between atoms: _209  and  _211
REMARK   87  A    between atoms: _211  and  _212
REMARK   88  A    between atoms: _214  and  _216
REMARK   89  A    between atoms: _216  and  _217
REMARK   90  A    between atoms: _216  and  _219
REMARK   91  A    between atoms: _222  and  _224
REMARK   92  A    between atoms: _224  and  _225
REMARK   93  A    between atoms: _224  and  _227
REMARK   94  A    between atoms: _227  and  _228
REMARK   95  A    between atoms: _230  and  _232
REMARK   96  A    between atoms: _232  and  _233
REMARK   97  A    between atoms: _235  and  _237
REMARK   98  A    between atoms: _237  and  _238
REMARK   99  A    between atoms: _241  and  _243
REMARK  100  A    between atoms: _243  and  _244
REMARK  101  A    between atoms: _243  and  _246
REMARK  102  A    between atoms: _249  and  _251
REMARK  103  A    between atoms: _251  and  _252
REMARK  104  A    between atoms: _251  and  _254
REMARK  105  A    between atoms: _254  and  _255
REMARK  106  A    between atoms: _255  and  _256
REMARK  107  A    between atoms: _256  and  _257
REMARK  108  A    between atoms: _257  and  _258
REMARK  109  A    between atoms: _262  and  _264
REMARK  110  A    between atoms: _264  and  _265
REMARK  111  A    between atoms: _264  and  _267
REMARK  112  A    between atoms: _267  and  _268
REMARK  113  A    between atoms: _271  and  _273
REMARK  114  A    between atoms: _273  and  _274
REMARK  115  A    between atoms: _276  and  _278
REMARK  116  A    between atoms: _278  and  _279
REMARK  117  A    between atoms: _282  and  _284
REMARK  118  A    between atoms: _284  and  _285
REMARK  119  A    between atoms: _284  and  _287
REMARK  120  A    between atoms: _287  and  _288
REMARK  121  A    between atoms: _291  and  _293
REMARK  122  A    between atoms: _293  and  _294
REMARK  123  A    between atoms: _293  and  _296
REMARK  124  A    between atoms: _296  and  _297
REMARK  125  A    between atoms: _297  and  _298
REMARK  126  A    between atoms: _300  and  _302
REMARK  127  A    between atoms: _302  and  _303
REMARK  128  A    between atoms: _302  and  _305
REMARK  129  A    between atoms: _305  and  _306
REMARK  130  A    between atoms: _309  and  _311
REMARK  131  A    between atoms: _311  and  _312
REMARK  132  A    between atoms: _311  and  _314
REMARK  133  A    between atoms: _314  and  _315
REMARK  134  A    between atoms: _321  and  _323
REMARK  135  A    between atoms: _323  and  _324
REMARK  136  A    between atoms: _323  and  _326
REMARK  137  A    between atoms: _329  and  _331
REMARK  138  A    between atoms: _331  and  _332
REMARK  139  A    between atoms: _331  and  _334
REMARK  140  A    between atoms: _334  and  _335
REMARK  141  A    between atoms: _335  and  _336
REMARK  142  A    between atoms: _336  and  _337
REMARK  143  A    between atoms: _337  and  _338
REMARK  144  A    between atoms: _342  and  _344
REMARK  145  A    between atoms: _344  and  _345
REMARK  146  A    between atoms: _344  and  _347
REMARK  147  A    between atoms: _347  and  _348
REMARK  148  A    between atoms: _353  and  _355
REMARK  149  A    between atoms: _355  and  _356
REMARK  150  A    between atoms: _355  and  _358
REMARK  151  A    between atoms: _358  and  _359
REMARK  152  A    between atoms: _364  and  _366
REMARK  153  A    between atoms: _366  and  _367
REMARK  154  A    between atoms: _366  and  _369
REMARK  155  A    between atoms: _369  and  _370
REMARK  156  A    between atoms: _370  and  _371
REMARK  157  A    between atoms: _374  and  _376
REMARK  158  A    between atoms: _376  and  _377
REMARK  159  A    between atoms: _376  and  _379
REMARK  160  A    between atoms: _379  and  _380
REMARK  161  A    between atoms: _383  and  _385
REMARK  162  A    between atoms: _385  and  _386
REMARK  163  A    between atoms: _385  and  _388
REMARK  164  A    between atoms: _388  and  _389
REMARK  165  A    between atoms: _392  and  _394
REMARK  166  A    between atoms: _394  and  _395
REMARK  167  A    between atoms: _394  and  _397
REMARK  168  A    between atoms: _397  and  _398
REMARK  169  A    between atoms: _401  and  _403
REMARK  170  A    between atoms: _403  and  _404
REMARK  171  A    between atoms: _403  and  _406
REMARK  172  A    between atoms: _406  and  _407
REMARK  173  A    between atoms: _407  and  _408
REMARK  174  A    between atoms: _410  and  _412
REMARK  175  A    between atoms: _412  and  _413
REMARK  176  A    between atoms: _412  and  _415
REMARK  177  A    between atoms: _415  and  _416
REMARK  178  A    between atoms: _416  and  _417
REMARK  179  A    between atoms: _420  and  _422
REMARK  180  A    between atoms: _422  and  _423
REMARK  181  A    between atoms: _422  and  _425
REMARK  182  A    between atoms: _425  and  _426
REMARK  183  A    between atoms: _428  and  _430
REMARK  184  A    between atoms: _430  and  _431
REMARK  185  A    between atoms: _430  and  _433
REMARK  186  A    between atoms: _433  and  _434
REMARK  187  A    between atoms: _437  and  _439
REMARK  188  A    between atoms: _439  and  _440
REMARK  189  A    between atoms: _439  and  _442
REMARK  190  A    between atoms: _442  and  _443
REMARK  191  A    between atoms: _446  and  _448
REMARK  192  A    between atoms: _448  and  _449
REMARK  193  A    between atoms: _448  and  _451
REMARK  194  A    between atoms: _451  and  _452
REMARK  195  A    between atoms: _455  and  _457
REMARK  196  A    between atoms: _457  and  _458
REMARK  197  A    between atoms: _457  and  _460
REMARK  198  A    between atoms: _460  and  _461
REMARK  199  A    between atoms: _464  and  _466
REMARK  200  A    between atoms: _466  and  _467
REMARK  201  A    between atoms: _466  and  _469
REMARK  202  A    between atoms: _469  and  _470
REMARK  203  A    between atoms: _470  and  _471
REMARK  204  A    between atoms: _471  and  _472
REMARK  205  A    between atoms: _472  and  _473
REMARK  206  A    between atoms: _477  and  _479
REMARK  207  A    between atoms: _479  and  _480
REMARK  208  A    between atoms: _482  and  _484
REMARK  209  A    between atoms: _484  and  _485
REMARK  210  A    between atoms: _484  and  _487
REMARK  211  A    between atoms: _487  and  _488
REMARK  212  A    between atoms: _493  and  _494
REMARK  213  A    between atoms: _496  and  _498
REMARK  214  A    between atoms: _498  and  _499
REMARK  215  A    between atoms: _501  and  _503
REMARK  216  A    between atoms: _503  and  _504
REMARK  217  A    between atoms: _503  and  _506
REMARK  218  A    between atoms: _506  and  _507
REMARK                            x       y       z     vdW  Elec       q    Type
REMARK                         _______ _______ _______ _____ _____    ______ ____
ROOT
ATOM      1  CA  THR A   4       3.754  31.914   9.244  0.00  0.00    +0.176 C 
ENDROOT
BRANCH   1   3
ATOM      2  C   LEU A   3       4.453  33.784  10.599  0.00  0.00    +0.241 C 
ATOM      3  N   THR A   4       3.822  32.620  10.513  0.00  0.00    -0.295 N 
ATOM      4  H   THR A   4       3.374  32.211  11.358  0.00  0.00    +0.150 HD
ATOM      5  O   LEU A   3       4.892  34.381   9.604  0.00  0.00    -0.273 OA
BRANCH   2   6
ATOM      6  CA  LEU A   3       4.589  34.368  11.999  0.00  0.00    +0.149 C 
BRANCH   6   9
ATOM      7  C   PRO A   2       6.637  33.542  13.071  0.00  0.00    +0.241 C 
ATOM      8  O   PRO A   2       6.123  32.452  13.378  0.00  0.00    -0.273 OA
ATOM      9  N   LEU A   3       6.002  34.488  12.383  0.00  0.00    -0.297 N 
ATOM     10  H   LEU A   3       6.525  35.343  12.107  0.00  0.00    +0.150 HD
BRANCH   7  16
ATOM     11  C   ALA A   1       7.723  36.101  14.217  0.00  0.00    +0.241 C 
ATOM     12  N   PRO A   2       8.068  34.848  14.574  0.00  0.00    -0.272 N 
ATOM     13  CD  PRO A   2       8.489  34.257  15.861  0.00  0.00    +0.094 C 
ATOM     14  CG  PRO A   2       8.460  32.771  15.590  0.00  0.00    +0.024 C 
ATOM     15  CB  PRO A   2       8.744  32.644  14.113  0.00  0.00    +0.031 C 
ATOM     16  CA  PRO A   2       8.073  33.866  13.482  0.00  0.00    +0.152 C 
ATOM     17  O   ALA A   1       7.554  36.435  13.045  0.00  0.00    -0.273 OA
BRANCH  11  18
ATOM     18  CA  ALA A   1       7.520  37.125  15.315  0.00  0.00    +0.145 C 
ATOM     19  CB  ALA A   1       6.242  36.835  16.069  0.00  0.00    +0.028 C 
BRANCH  18  20
ATOM     20  N   ALA A   1       7.420  38.425  14.660  0.00  0.00    -0.238 NA
ATOM     21  H   ALA A   1       7.348  38.463  13.623  0.00  0.00    +0.142 HD
ENDBRANCH  18  20
ENDBRANCH  11  18
ENDBRANCH   7  16
ENDBRANCH   6   9
BRANCH   6  22
ATOM     22  CB  LEU A   3       3.911  35.742  12.055  0.00  0.00    +0.029 C 
BRANCH  22  23
ATOM     23  CG  LEU A   3       2.415  35.839  11.758  0.00  0.00    +0.002 C 
ATOM     24  CD2 LEU A   3       1.599  35.218  12.887  0.00  0.00    +0.000 C 
ATOM     25  CD1 LEU A   3       2.007  37.298  11.539  0.00  0.00    +0.000 C 
ENDBRANCH  22  23
ENDBRANCH   6  22
ENDBRANCH   2   6
ENDBRANCH   1   3
BRANCH   1  26
ATOM     26  C   THR A   4       2.773  32.582   8.283  0.00  0.00    +0.243 C 
ATOM     27  O   THR A   4       1.625  32.893   8.651  0.00  0.00    -0.273 OA
ATOM     28  N   ILE A   5       3.243  32.805   7.054  0.00  0.00    -0.297 N 
ATOM     29  H   ILE A   5       4.226  32.542   6.840  0.00  0.00    +0.150 HD
BRANCH  28  30
ATOM     30  CA  ILE A   5       2.432  33.404   5.997  0.00  0.00    +0.149 C 
BRANCH  30  31
ATOM     31  C   ILE A   5       1.540  32.331   5.400  0.00  0.00    +0.241 C 
ATOM     32  N   THR A   6       0.224  32.490   5.538  0.00  0.00    -0.296 N 
ATOM     33  H   THR A   6      -0.142  33.328   6.034  0.00  0.00    +0.150 HD
ATOM     34  O   ILE A   5       2.039  31.364   4.820  0.00  0.00    -0.273 OA
BRANCH  32  35
ATOM     35  CA  THR A   6      -0.710  31.505   5.003  0.00  0.00    +0.164 C 
BRANCH  35  36
ATOM     36  C   THR A   6      -1.863  32.212   4.322  0.00  0.00    +0.229 C 
ATOM     37  O   THR A   6      -2.238  33.325   4.707  0.00  0.00    -0.286 OA
ENDBRANCH  35  36
BRANCH  35  38
ATOM     38  CB  THR A   6      -1.317  30.619   6.102  0.00  0.00    +0.136 C 
ATOM     39  CG2 THR A   6      -0.234  29.946   6.942  0.00  0.00    +0.034 C 
BRANCH  38  40
ATOM     40  OG1 THR A   6      -2.161  31.418   6.941  0.00  0.00    -0.382 OA
ATOM     41  HG1 THR A   6      -2.553  30.849   7.650  0.00  0.00    +0.210 HD
ENDBRANCH  38  40
ENDBRANCH  35  38
ENDBRANCH  32  35
ENDBRANCH  30  31
BRANCH  30  42
ATOM     42  CB  ILE A   5       3.318  33.972   4.871  0.00  0.00    +0.027 C 
ATOM     43  CG2 ILE A   5       2.458  34.518   3.739  0.00  0.00    +0.002 C 
BRANCH  42  44
ATOM     44  CG1 ILE A   5       4.246  35.061   5.419  0.00  0.00    +0.002 C 
ATOM     45  CD1 ILE A   5       5.481  35.335   4.562  0.00  0.00    +0.000 C 
ENDBRANCH  42  44
ENDBRANCH  30  42
ENDBRANCH  28  30
ENDBRANCH   1  26
BRANCH   1  46
ATOM     46  CB  THR A   4       3.412  30.429   9.454  0.00  0.00    +0.137 C 
ATOM     47  CG2 THR A   4       3.508  29.666   8.146  0.00  0.00    +0.034 C 
BRANCH  46  48
ATOM     48  OG1 THR A   4       4.346  29.871  10.390  0.00  0.00    -0.382 OA
ATOM     49  HG1 THR A   4       4.136  28.914  10.534  0.00  0.00    +0.210 HD
ENDBRANCH  46  48
ENDBRANCH   1  46
TORSDOF 19
REMARK  Name = ../refined-set-2016/4nwc/4nwc_pocket.pdb
REMARK  218 active torsions:
REMARK  status: ('A' for Active; 'I' for Inactive)
REMARK    1  A    between atoms: _1  and  _3
REMARK    2  A    between atoms: _3  and  _4
REMARK    3  A    between atoms: _3  and  _6
REMARK    4  A    between atoms: _6  and  _7
REMARK    5  A    between atoms: _10  and  _12
REMARK    6  A    between atoms: _12  and  _13
REMARK    7  A    between atoms: _12  and  _15
REMARK    8  A    between atoms: _15  and  _16
REMARK    9  A    between atoms: _19  and  _21
REMARK   10  A    between atoms: _21  and  _22
REMARK   11  A    between atoms: _21  and  _24
REMARK   12  A    between atoms: _24  and  _25
REMARK   13  A    between atoms: _25  and  _26
REMARK   14  A    between atoms: _29  and  _31
REMARK   15  A    between atoms: _31  and  _32
REMARK   16  A    between atoms: _31  and  _34
REMARK   17  A    between atoms: _34  and  _35
REMARK   18  A    between atoms: _35  and  _36
REMARK   19  A    between atoms: _40  and  _41
REMARK   20  A    between atoms: _46  and  _48
REMARK   21  A    between atoms: _48  and  _49
REMARK   22  A    between atoms: _48  and  _51
REMARK   23  A    between atoms: _51  and  _52
REMARK   24  A    between atoms: _58  and  _60
REMARK   25  A    between atoms: _60  and  _61
REMARK   26  A    between atoms: _60  and  _63
REMARK   27  A    between atoms: _63  and  _64
REMARK   28  A    between atoms: _64  and  _65
REMARK   29  A    between atoms: _65  and  _66
REMARK   30  A    between atoms: _66  and  _67
REMARK   31  A    between atoms: _71  and  _73
REMARK   32  A    between atoms: _73  and  _74
REMARK   33  A    between atoms: _73  and  _76
REMARK   34  A    between atoms: _76  and  _77
REMARK   35  A    between atoms: _82  and  _83
REMARK   36  A    between atoms: _85  and  _87
REMARK   37  A    between atoms: _87  and  _88
REMARK   38  A    between atoms: _90  and  _92
REMARK   39  A    between atoms: _92  and  _93
REMARK   40  A    between atoms: _96  and  _98
REMARK   41  A    between atoms: _98  and  _99
REMARK   42  A    between atoms: _98  and  _101
REMARK   43  A    between atoms: _101  and  _102
REMARK   44  A    between atoms: _102  and  _103
REMARK   45  A    between atoms: _105  and  _107
REMARK   46  A    between atoms: _107  and  _108
REMARK   47  A    between atoms: _107  and  _110
REMARK   48  A    between atoms: _113  and  _115
REMARK   49  A    between atoms: _115  and  _116
REMARK   50  A    between atoms: _120  and  _121
REMARK   51  A    between atoms: _126  and  _128
REMARK   52  A    between atoms: _128  and  _129
REMARK   53  A    between atoms: _128  and  _131
REMARK   54  A    between atoms: _131  and  _132
REMARK   55  A    between atoms: _135  and  _137
REMARK   56  A    between atoms: _137  and  _138
REMARK   57  A    between atoms: _137  and  _140
REMARK   58  A    between atoms: _140  and  _141
REMARK   59  A    between atoms: _144  and  _146
REMARK   60  A    between atoms: _146  and  _147
REMARK   61  A    between atoms: _146  and  _149
REMARK   62  A    between atoms: _149  and  _150
REMARK   63  A    between atoms: _153  and  _155
REMARK   64  A    between atoms: _155  and  _156
REMARK   65  A    between atoms: _155  and  _158
REMARK   66  A    between atoms: _158  and  _159
REMARK   67  A    between atoms: _162  and  _164
REMARK   68  A    between atoms: _164  and  _165
REMARK   69  A    between atoms: _164  and  _167
REMARK   70  A    between atoms: _167  and  _168
REMARK   71  A    between atoms: _168  and  _169
REMARK   72  A    between atoms: _169  and  _170
REMARK   73  A    between atoms: _179  and  _181
REMARK   74  A    between atoms: _181  and  _182
REMARK   75  A    between atoms: _181  and  _184
REMARK   76  A    between atoms: _184  and  _185
REMARK   77  A    between atoms: _191  and  _193
REMARK   78  A    between atoms: _193  and  _194
REMARK   79  A    between atoms: _193  and  _196
REMARK   80  A    between atoms: _196  and  _197
REMARK   81  A    between atoms: _197  and  _198
REMARK   82  A    between atoms: _200  and  _202
REMARK   83  A    between atoms: _202  and  _203
REMARK   84  A    between atoms: _202  and  _205
REMARK   85  A    between atoms: _205  and  _206
REMARK   86  A    between atoms: _209  and  _211
REMARK   87  A    between atoms: _211  and  _212
REMARK   88  A    between atoms: _214  and  _216
REMARK   89  A    between atoms: _216  and  _217
REMARK   90  A    between atoms: _216  and  _219
REMARK   91  A    between atoms: _222  and  _224
REMARK   92  A    between atoms: _224  and  _225
REMARK   93  A    between atoms: _224  and  _227
REMARK   94  A    between atoms: _227  and  _228
REMARK   95  A    between atoms: _230  and  _232
REMARK   96  A    between atoms: _232  and  _233
REMARK   97  A    between atoms: _235  and  _237
REMARK   98  A    between atoms: _237  and  _238
REMARK   99  A    between atoms: _241  and  _243
REMARK  100  A    between atoms: _243  and  _244
REMARK  101  A    between atoms: _243  and  _246
REMARK  102  A    between atoms: _249  and  _251
REMARK  103  A    between atoms: _251  and  _252
REMARK  104  A    between atoms: _251  and  _254
REMARK  105  A    between atoms: _254  and  _255
REMARK  106  A    between atoms: _255  and  _256
REMARK  107  A    between atoms: _256  and  _257
REMARK  108  A    between atoms: _257  and  _258
REMARK  109  A    between atoms: _262  and  _264
REMARK  110  A    between atoms: _264  and  _265
REMARK  111  A    between atoms: _264  and  _267
REMARK  112  A    between atoms: _267  and  _268
REMARK  113  A    between atoms: _271  and  _273
REMARK  114  A    between atoms: _273  and  _274
REMARK  115  A    between atoms: _276  and  _278
REMARK  116  A    between atoms: _278  and  _279
REMARK  117  A    between atoms: _282  and  _284
REMARK  118  A    between atoms: _284  and  _285
REMARK  119  A    between atoms: _284  and  _287
REMARK  120  A    between atoms: _287  and  _288
REMARK  121  A    between atoms: _291  and  _293
REMARK  122  A    between atoms: _293  and  _294
REMARK  123  A    between atoms: _293  and  _296
REMARK  124  A    between atoms: _296  and  _297
REMARK  125  A    between atoms: _297  and  _298
REMARK  126  A    between atoms: _300  and  _302
REMARK  127  A    between atoms: _302  and  _303
REMARK  128  A    between atoms: _302  and  _305
REMARK  129  A    between atoms: _305  and  _306
REMARK  130  A    between atoms: _309  and  _311
REMARK  131  A    between atoms: _311  and  _312
REMARK  132  A    between atoms: _311  and  _314
REMARK  133  A    between atoms: _314  and  _315
REMARK  134  A    between atoms: _321  and  _323
REMARK  135  A    between atoms: _323  and  _324
REMARK  136  A    between atoms: _323  and  _326
REMARK  137  A    between atoms: _329  and  _331
REMARK  138  A    between atoms: _331  and  _332
REMARK  139  A    between atoms: _331  and  _334
REMARK  140  A    between atoms: _334  and  _335
REMARK  141  A    between atoms: _335  and  _336
REMARK  142  A    between atoms: _336  and  _337
REMARK  143  A    between atoms: _337  and  _338
REMARK  144  A    between atoms: _342  and  _344
REMARK  145  A    between atoms: _344  and  _345
REMARK  146  A    between atoms: _344  and  _347
REMARK  147  A    between atoms: _347  and  _348
REMARK  148  A    between atoms: _353  and  _355
REMARK  149  A    between atoms: _355  and  _356
REMARK  150  A    between atoms: _355  and  _358
REMARK  151  A    between atoms: _358  and  _359
REMARK  152  A    between atoms: _364  and  _366
REMARK  153  A    between atoms: _366  and  _367
REMARK  154  A    between atoms: _366  and  _369
REMARK  155  A    between atoms: _369  and  _370
REMARK  156  A    between atoms: _370  and  _371
REMARK  157  A    between atoms: _374  and  _376
REMARK  158  A    between atoms: _376  and  _377
REMARK  159  A    between atoms: _376  and  _379
REMARK  160  A    between atoms: _379  and  _380
REMARK  161  A    between atoms: _383  and  _385
REMARK  162  A    between atoms: _385  and  _386
REMARK  163  A    between atoms: _385  and  _388
REMARK  164  A    between atoms: _388  and  _389
REMARK  165  A    between atoms: _392  and  _394
REMARK  166  A    between atoms: _394  and  _395
REMARK  167  A    between atoms: _394  and  _397
REMARK  168  A    between atoms: _397  and  _398
REMARK  169  A    between atoms: _401  and  _403
REMARK  170  A    between atoms: _403  and  _404
REMARK  171  A    between atoms: _403  and  _406
REMARK  172  A    between atoms: _406  and  _407
REMARK  173  A    between atoms: _407  and  _408
REMARK  174  A    between atoms: _410  and  _412
REMARK  175  A    between atoms: _412  and  _413
REMARK  176  A    between atoms: _412  and  _415
REMARK  177  A    between atoms: _415  and  _416
REMARK  178  A    between atoms: _416  and  _417
REMARK  179  A    between atoms: _420  and  _422
REMARK  180  A    between atoms: _422  and  _423
REMARK  181  A    between atoms: _422  and  _425
REMARK  182  A    between atoms: _425  and  _426
REMARK  183  A    between atoms: _428  and  _430
REMARK  184  A    between atoms: _430  and  _431
REMARK  185  A    between atoms: _430  and  _433
REMARK  186  A    between atoms: _433  and  _434
REMARK  187  A    between atoms: _437  and  _439
REMARK  188  A    between atoms: _439  and  _440
REMARK  189  A    between atoms: _439  and  _442
REMARK  190  A    between atoms: _442  and  _443
REMARK  191  A    between atoms: _446  and  _448
REMARK  192  A    between atoms: _448  and  _449
REMARK  193  A    between atoms: _448  and  _451
REMARK  194  A    between atoms: _451  and  _452
REMARK  195  A    between atoms: _455  and  _457
REMARK  196  A    between atoms: _457  and  _458
REMARK  197  A    between atoms: _457  and  _460
REMARK  198  A    between atoms: _460  and  _461
REMARK  199  A    between atoms: _464  and  _466
REMARK  200  A    between atoms: _466  and  _467
REMARK  201  A    between atoms: _466  and  _469
REMARK  202  A    between atoms: _469  and  _470
REMARK  203  A    between atoms: _470  and  _471
REMARK  204  A    between atoms: _471  and  _472
REMARK  205  A    between atoms: _472  and  _473
REMARK  206  A    between atoms: _477  and  _479
REMARK  207  A    between atoms: _479  and  _480
REMARK  208  A    between atoms: _482  and  _484
REMARK  209  A    between atoms: _484  and  _485
REMARK  210  A    between atoms: _484  and  _487
REMARK  211  A    between atoms: _487  and  _488
REMARK  212  A    between atoms: _493  and  _494
REMARK  213  A    between atoms: _496  and  _498
REMARK  214  A    between atoms: _498  and  _499
REMARK  215  A    between atoms: _501  and  _503
REMARK  216  A    between atoms: _503  and  _504
REMARK  217  A    between atoms: _503  and  _506
REMARK  218  A    between atoms: _506  and  _507
REMARK                            x       y       z     vdW  Elec       q    Type
REMARK                         _______ _______ _______ _____ _____    ______ ____
ROOT
ATOM      1  NE  ARG A   1      -1.853  32.494  11.226  0.00  0.00    -0.265 N 
ATOM      2  CZ  ARG A   1      -0.775  32.070  11.874  0.00  0.00    +0.342 C 
ATOM      3  NH2 ARG A   1      -0.896  31.499  13.073  0.00  0.00    -0.292 N 
ATOM      4 HH21 ARG A   1      -0.050  31.168  13.579  0.00  0.00    +0.255 HD
ATOM      5 HH22 ARG A   1      -1.836  31.385  13.502  0.00  0.00    +0.255 HD
ATOM      6  NH1 ARG A   1       0.419  32.195  11.315  0.00  0.00    -0.292 N 
ATOM      7 HH11 ARG A   1       1.266  31.864  11.819  0.00  0.00    +0.255 HD
ATOM      8 HH12 ARG A   1       0.509  32.624  10.372  0.00  0.00    +0.255 HD
ATOM      9  HE  ARG A   1      -2.780  32.356  11.678  0.00  0.00    +0.259 HD
ENDROOT
BRANCH   1  10
ATOM     10  CD  ARG A   1      -1.818  33.144   9.914  0.00  0.00    +0.174 C 
BRANCH  10  11
ATOM     11  CG  ARG A   1      -3.218  33.279   9.333  0.00  0.00    +0.045 C 
BRANCH  11  12
ATOM     12  CB  ARG A   1      -3.267  34.291   8.197  0.00  0.00    +0.029 C 
BRANCH  12  13
ATOM     13  CA  ARG A   1      -4.599  34.278   7.454  0.00  0.00    +0.133 C 
BRANCH  13  14
ATOM     14  N   ARG A   1      -4.751  33.062   6.660  0.00  0.00    -0.239 NA
ATOM     15  H   ARG A   1      -3.929  32.455   6.467  0.00  0.00    +0.142 HD
ENDBRANCH  13  14
BRANCH  13  16
ATOM     16  C   ARG A   1      -4.733  35.516   6.585  0.00  0.00    +0.224 C 
ATOM     17  O   ARG A   1      -5.112  36.587   7.067  0.00  0.00    -0.287 OA
ENDBRANCH  13  16
ENDBRANCH  12  13
ENDBRANCH  11  12
ENDBRANCH  10  11
ENDBRANCH   1  10
TORSDOF 6
REMARK  Name = ../refined-set-2016/4nwc/4nwc_pocket.pdb
REMARK  218 active torsions:
REMARK  status: ('A' for Active; 'I' for Inactive)
REMARK    1  A    between atoms: _1  and  _3
REMARK    2  A    between atoms: _3  and  _4
REMARK    3  A    between atoms: _3  and  _6
REMARK    4  A    between atoms: _6  and  _7
REMARK    5  A    between atoms: _10  and  _12
REMARK    6  A    between atoms: _12  and  _13
REMARK    7  A    between atoms: _12  and  _15
REMARK    8  A    between atoms: _15  and  _16
REMARK    9  A    between atoms: _19  and  _21
REMARK   10  A    between atoms: _21  and  _22
REMARK   11  A    between atoms: _21  and  _24
REMARK   12  A    between atoms: _24  and  _25
REMARK   13  A    between atoms: _25  and  _26
REMARK   14  A    between atoms: _29  and  _31
REMARK   15  A    between atoms: _31  and  _32
REMARK   16  A    between atoms: _31  and  _34
REMARK   17  A    between atoms: _34  and  _35
REMARK   18  A    between atoms: _35  and  _36
REMARK   19  A    between atoms: _40  and  _41
REMARK   20  A    between atoms: _46  and  _48
REMARK   21  A    between atoms: _48  and  _49
REMARK   22  A    between atoms: _48  and  _51
REMARK   23  A    between atoms: _51  and  _52
REMARK   24  A    between atoms: _58  and  _60
REMARK   25  A    between atoms: _60  and  _61
REMARK   26  A    between atoms: _60  and  _63
REMARK   27  A    between atoms: _63  and  _64
REMARK   28  A    between atoms: _64  and  _65
REMARK   29  A    between atoms: _65  and  _66
REMARK   30  A    between atoms: _66  and  _67
REMARK   31  A    between atoms: _71  and  _73
REMARK   32  A    between atoms: _73  and  _74
REMARK   33  A    between atoms: _73  and  _76
REMARK   34  A    between atoms: _76  and  _77
REMARK   35  A    between atoms: _82  and  _83
REMARK   36  A    between atoms: _85  and  _87
REMARK   37  A    between atoms: _87  and  _88
REMARK   38  A    between atoms: _90  and  _92
REMARK   39  A    between atoms: _92  and  _93
REMARK   40  A    between atoms: _96  and  _98
REMARK   41  A    between atoms: _98  and  _99
REMARK   42  A    between atoms: _98  and  _101
REMARK   43  A    between atoms: _101  and  _102
REMARK   44  A    between atoms: _102  and  _103
REMARK   45  A    between atoms: _105  and  _107
REMARK   46  A    between atoms: _107  and  _108
REMARK   47  A    between atoms: _107  and  _110
REMARK   48  A    between atoms: _113  and  _115
REMARK   49  A    between atoms: _115  and  _116
REMARK   50  A    between atoms: _120  and  _121
REMARK   51  A    between atoms: _126  and  _128
REMARK   52  A    between atoms: _128  and  _129
REMARK   53  A    between atoms: _128  and  _131
REMARK   54  A    between atoms: _131  and  _132
REMARK   55  A    between atoms: _135  and  _137
REMARK   56  A    between atoms: _137  and  _138
REMARK   57  A    between atoms: _137  and  _140
REMARK   58  A    between atoms: _140  and  _141
REMARK   59  A    between atoms: _144  and  _146
REMARK   60  A    between atoms: _146  and  _147
REMARK   61  A    between atoms: _146  and  _149
REMARK   62  A    between atoms: _149  and  _150
REMARK   63  A    between atoms: _153  and  _155
REMARK   64  A    between atoms: _155  and  _156
REMARK   65  A    between atoms: _155  and  _158
REMARK   66  A    between atoms: _158  and  _159
REMARK   67  A    between atoms: _162  and  _164
REMARK   68  A    between atoms: _164  and  _165
REMARK   69  A    between atoms: _164  and  _167
REMARK   70  A    between atoms: _167  and  _168
REMARK   71  A    between atoms: _168  and  _169
REMARK   72  A    between atoms: _169  and  _170
REMARK   73  A    between atoms: _179  and  _181
REMARK   74  A    between atoms: _181  and  _182
REMARK   75  A    between atoms: _181  and  _184
REMARK   76  A    between atoms: _184  and  _185
REMARK   77  A    between atoms: _191  and  _193
REMARK   78  A    between atoms: _193  and  _194
REMARK   79  A    between atoms: _193  and  _196
REMARK   80  A    between atoms: _196  and  _197
REMARK   81  A    between atoms: _197  and  _198
REMARK   82  A    between atoms: _200  and  _202
REMARK   83  A    between atoms: _202  and  _203
REMARK   84  A    between atoms: _202  and  _205
REMARK   85  A    between atoms: _205  and  _206
REMARK   86  A    between atoms: _209  and  _211
REMARK   87  A    between atoms: _211  and  _212
REMARK   88  A    between atoms: _214  and  _216
REMARK   89  A    between atoms: _216  and  _217
REMARK   90  A    between atoms: _216  and  _219
REMARK   91  A    between atoms: _222  and  _224
REMARK   92  A    between atoms: _224  and  _225
REMARK   93  A    between atoms: _224  and  _227
REMARK   94  A    between atoms: _227  and  _228
REMARK   95  A    between atoms: _230  and  _232
REMARK   96  A    between atoms: _232  and  _233
REMARK   97  A    between atoms: _235  and  _237
REMARK   98  A    between atoms: _237  and  _238
REMARK   99  A    between atoms: _241  and  _243
REMARK  100  A    between atoms: _243  and  _244
REMARK  101  A    between atoms: _243  and  _246
REMARK  102  A    between atoms: _249  and  _251
REMARK  103  A    between atoms: _251  and  _252
REMARK  104  A    between atoms: _251  and  _254
REMARK  105  A    between atoms: _254  and  _255
REMARK  106  A    between atoms: _255  and  _256
REMARK  107  A    between atoms: _256  and  _257
REMARK  108  A    between atoms: _257  and  _258
REMARK  109  A    between atoms: _262  and  _264
REMARK  110  A    between atoms: _264  and  _265
REMARK  111  A    between atoms: _264  and  _267
REMARK  112  A    between atoms: _267  and  _268
REMARK  113  A    between atoms: _271  and  _273
REMARK  114  A    between atoms: _273  and  _274
REMARK  115  A    between atoms: _276  and  _278
REMARK  116  A    between atoms: _278  and  _279
REMARK  117  A    between atoms: _282  and  _284
REMARK  118  A    between atoms: _284  and  _285
REMARK  119  A    between atoms: _284  and  _287
REMARK  120  A    between atoms: _287  and  _288
REMARK  121  A    between atoms: _291  and  _293
REMARK  122  A    between atoms: _293  and  _294
REMARK  123  A    between atoms: _293  and  _296
REMARK  124  A    between atoms: _296  and  _297
REMARK  125  A    between atoms: _297  and  _298
REMARK  126  A    between atoms: _300  and  _302
REMARK  127  A    between atoms: _302  and  _303
REMARK  128  A    between atoms: _302  and  _305
REMARK  129  A    between atoms: _305  and  _306
REMARK  130  A    between atoms: _309  and  _311
REMARK  131  A    between atoms: _311  and  _312
REMARK  132  A    between atoms: _311  and  _314
REMARK  133  A    between atoms: _314  and  _315
REMARK  134  A    between atoms: _321  and  _323
REMARK  135  A    between atoms: _323  and  _324
REMARK  136  A    between atoms: _323  and  _326
REMARK  137  A    between atoms: _329  and  _331
REMARK  138  A    between atoms: _331  and  _332
REMARK  139  A    between atoms: _331  and  _334
REMARK  140  A    between atoms: _334  and  _335
REMARK  141  A    between atoms: _335  and  _336
REMARK  142  A    between atoms: _336  and  _337
REMARK  143  A    between atoms: _337  and  _338
REMARK  144  A    between atoms: _342  and  _344
REMARK  145  A    between atoms: _344  and  _345
REMARK  146  A    between atoms: _344  and  _347
REMARK  147  A    between atoms: _347  and  _348
REMARK  148  A    between atoms: _353  and  _355
REMARK  149  A    between atoms: _355  and  _356
REMARK  150  A    between atoms: _355  and  _358
REMARK  151  A    between atoms: _358  and  _359
REMARK  152  A    between atoms: _364  and  _366
REMARK  153  A    between atoms: _366  and  _367
REMARK  154  A    between atoms: _366  and  _369
REMARK  155  A    between atoms: _369  and  _370
REMARK  156  A    between atoms: _370  and  _371
REMARK  157  A    between atoms: _374  and  _376
REMARK  158  A    between atoms: _376  and  _377
REMARK  159  A    between atoms: _376  and  _379
REMARK  160  A    between atoms: _379  and  _380
REMARK  161  A    between atoms: _383  and  _385
REMARK  162  A    between atoms: _385  and  _386
REMARK  163  A    between atoms: _385  and  _388
REMARK  164  A    between atoms: _388  and  _389
REMARK  165  A    between atoms: _392  and  _394
REMARK  166  A    between atoms: _394  and  _395
REMARK  167  A    between atoms: _394  and  _397
REMARK  168  A    between atoms: _397  and  _398
REMARK  169  A    between atoms: _401  and  _403
REMARK  170  A    between atoms: _403  and  _404
REMARK  171  A    between atoms: _403  and  _406
REMARK  172  A    between atoms: _406  and  _407
REMARK  173  A    between atoms: _407  and  _408
REMARK  174  A    between atoms: _410  and  _412
REMARK  175  A    between atoms: _412  and  _413
REMARK  176  A    between atoms: _412  and  _415
REMARK  177  A    between atoms: _415  and  _416
REMARK  178  A    between atoms: _416  and  _417
REMARK  179  A    between atoms: _420  and  _422
REMARK  180  A    between atoms: _422  and  _423
REMARK  181  A    between atoms: _422  and  _425
REMARK  182  A    between atoms: _425  and  _426
REMARK  183  A    between atoms: _428  and  _430
REMARK  184  A    between atoms: _430  and  _431
REMARK  185  A    between atoms: _430  and  _433
REMARK  186  A    between atoms: _433  and  _434
REMARK  187  A    between atoms: _437  and  _439
REMARK  188  A    between atoms: _439  and  _440
REMARK  189  A    between atoms: _439  and  _442
REMARK  190  A    between atoms: _442  and  _443
REMARK  191  A    between atoms: _446  and  _448
REMARK  192  A    between atoms: _448  and  _449
REMARK  193  A    between atoms: _448  and  _451
REMARK  194  A    between atoms: _451  and  _452
REMARK  195  A    between atoms: _455  and  _457
REMARK  196  A    between atoms: _457  and  _458
REMARK  197  A    between atoms: _457  and  _460
REMARK  198  A    between atoms: _460  and  _461
REMARK  199  A    between atoms: _464  and  _466
REMARK  200  A    between atoms: _466  and  _467
REMARK  201  A    between atoms: _466  and  _469
REMARK  202  A    between atoms: _469  and  _470
REMARK  203  A    between atoms: _470  and  _471
REMARK  204  A    between atoms: _471  and  _472
REMARK  205  A    between atoms: _472  and  _473
REMARK  206  A    between atoms: _477  and  _479
REMARK  207  A    between atoms: _479  and  _480
REMARK  208  A    between atoms: _482  and  _484
REMARK  209  A    between atoms: _484  and  _485
REMARK  210  A    between atoms: _484  and  _487
REMARK  211  A    between atoms: _487  and  _488
REMARK  212  A    between atoms: _493  and  _494
REMARK  213  A    between atoms: _496  and  _498
REMARK  214  A    between atoms: _498  and  _499
REMARK  215  A    between atoms: _501  and  _503
REMARK  216  A    between atoms: _503  and  _504
REMARK  217  A    between atoms: _503  and  _506
REMARK  218  A    between atoms: _506  and  _507
REMARK                            x       y       z     vdW  Elec       q    Type
REMARK                         _______ _______ _______ _____ _____    ______ ____
ROOT
ATOM      1  CB  PHE A   1       2.360  38.516   5.186  0.00  0.00    +0.051 C 
ENDROOT
BRANCH   1   2
ATOM      2  CG  PHE A   1       1.526  37.625   6.051  0.00  0.00    -0.020 A 
ATOM      3  CD2 PHE A   1       1.961  37.275   7.325  0.00  0.00    -0.004 A 
ATOM      4  CE2 PHE A   1       1.205  36.430   8.137  0.00  0.00    -0.000 A 
ATOM      5  CZ  PHE A   1      -0.006  35.935   7.670  0.00  0.00    -0.000 A 
ATOM      6  CE1 PHE A   1      -0.453  36.282   6.393  0.00  0.00    -0.000 A 
ATOM      7  CD1 PHE A   1       0.319  37.116   5.586  0.00  0.00    -0.004 A 
ENDBRANCH   1   2
BRANCH   1   8
ATOM      8  CA  PHE A   1       2.089  40.009   5.375  0.00  0.00    +0.137 C 
BRANCH   8   9
ATOM      9  N   PHE A   1       0.725  40.359   4.974  0.00  0.00    -0.239 NA
ATOM     10  H   PHE A   1       0.449  40.258   3.976  0.00  0.00    +0.142 HD
ENDBRANCH   8   9
BRANCH   8  11
ATOM     11  C   PHE A   1       3.089  40.745   4.501  0.00  0.00    +0.224 C 
ATOM     12  O   PHE A   1       2.819  40.983   3.325  0.00  0.00    -0.287 OA
ENDBRANCH   8  11
ENDBRANCH   1   8
TORSDOF 4
REMARK  Name = ../refined-set-2016/4nwc/4nwc_pocket.pdb
REMARK  218 active torsions:
REMARK  status: ('A' for Active; 'I' for Inactive)
REMARK    1  A    between atoms: _1  and  _3
REMARK    2  A    between atoms: _3  and  _4
REMARK    3  A    between atoms: _3  and  _6
REMARK    4  A    between atoms: _6  and  _7
REMARK    5  A    between atoms: _10  and  _12
REMARK    6  A    between atoms: _12  and  _13
REMARK    7  A    between atoms: _12  and  _15
REMARK    8  A    between atoms: _15  and  _16
REMARK    9  A    between atoms: _19  and  _21
REMARK   10  A    between atoms: _21  and  _22
REMARK   11  A    between atoms: _21  and  _24
REMARK   12  A    between atoms: _24  and  _25
REMARK   13  A    between atoms: _25  and  _26
REMARK   14  A    between atoms: _29  and  _31
REMARK   15  A    between atoms: _31  and  _32
REMARK   16  A    between atoms: _31  and  _34
REMARK   17  A    between atoms: _34  and  _35
REMARK   18  A    between atoms: _35  and  _36
REMARK   19  A    between atoms: _40  and  _41
REMARK   20  A    between atoms: _46  and  _48
REMARK   21  A    between atoms: _48  and  _49
REMARK   22  A    between atoms: _48  and  _51
REMARK   23  A    between atoms: _51  and  _52
REMARK   24  A    between atoms: _58  and  _60
REMARK   25  A    between atoms: _60  and  _61
REMARK   26  A    between atoms: _60  and  _63
REMARK   27  A    between atoms: _63  and  _64
REMARK   28  A    between atoms: _64  and  _65
REMARK   29  A    between atoms: _65  and  _66
REMARK   30  A    between atoms: _66  and  _67
REMARK   31  A    between atoms: _71  and  _73
REMARK   32  A    between atoms: _73  and  _74
REMARK   33  A    between atoms: _73  and  _76
REMARK   34  A    between atoms: _76  and  _77
REMARK   35  A    between atoms: _82  and  _83
REMARK   36  A    between atoms: _85  and  _87
REMARK   37  A    between atoms: _87  and  _88
REMARK   38  A    between atoms: _90  and  _92
REMARK   39  A    between atoms: _92  and  _93
REMARK   40  A    between atoms: _96  and  _98
REMARK   41  A    between atoms: _98  and  _99
REMARK   42  A    between atoms: _98  and  _101
REMARK   43  A    between atoms: _101  and  _102
REMARK   44  A    between atoms: _102  and  _103
REMARK   45  A    between atoms: _105  and  _107
REMARK   46  A    between atoms: _107  and  _108
REMARK   47  A    between atoms: _107  and  _110
REMARK   48  A    between atoms: _113  and  _115
REMARK   49  A    between atoms: _115  and  _116
REMARK   50  A    between atoms: _120  and  _121
REMARK   51  A    between atoms: _126  and  _128
REMARK   52  A    between atoms: _128  and  _129
REMARK   53  A    between atoms: _128  and  _131
REMARK   54  A    between atoms: _131  and  _132
REMARK   55  A    between atoms: _135  and  _137
REMARK   56  A    between atoms: _137  and  _138
REMARK   57  A    between atoms: _137  and  _140
REMARK   58  A    between atoms: _140  and  _141
REMARK   59  A    between atoms: _144  and  _146
REMARK   60  A    between atoms: _146  and  _147
REMARK   61  A    between atoms: _146  and  _149
REMARK   62  A    between atoms: _149  and  _150
REMARK   63  A    between atoms: _153  and  _155
REMARK   64  A    between atoms: _155  and  _156
REMARK   65  A    between atoms: _155  and  _158
REMARK   66  A    between atoms: _158  and  _159
REMARK   67  A    between atoms: _162  and  _164
REMARK   68  A    between atoms: _164  and  _165
REMARK   69  A    between atoms: _164  and  _167
REMARK   70  A    between atoms: _167  and  _168
REMARK   71  A    between atoms: _168  and  _169
REMARK   72  A    between atoms: _169  and  _170
REMARK   73  A    between atoms: _179  and  _181
REMARK   74  A    between atoms: _181  and  _182
REMARK   75  A    between atoms: _181  and  _184
REMARK   76  A    between atoms: _184  and  _185
REMARK   77  A    between atoms: _191  and  _193
REMARK   78  A    between atoms: _193  and  _194
REMARK   79  A    between atoms: _193  and  _196
REMARK   80  A    between atoms: _196  and  _197
REMARK   81  A    between atoms: _197  and  _198
REMARK   82  A    between atoms: _200  and  _202
REMARK   83  A    between atoms: _202  and  _203
REMARK   84  A    between atoms: _202  and  _205
REMARK   85  A    between atoms: _205  and  _206
REMARK   86  A    between atoms: _209  and  _211
REMARK   87  A    between atoms: _211  and  _212
REMARK   88  A    between atoms: _214  and  _216
REMARK   89  A    between atoms: _216  and  _217
REMARK   90  A    between atoms: _216  and  _219
REMARK   91  A    between atoms: _222  and  _224
REMARK   92  A    between atoms: _224  and  _225
REMARK   93  A    between atoms: _224  and  _227
REMARK   94  A    between atoms: _227  and  _228
REMARK   95  A    between atoms: _230  and  _232
REMARK   96  A    between atoms: _232  and  _233
REMARK   97  A    between atoms: _235  and  _237
REMARK   98  A    between atoms: _237  and  _238
REMARK   99  A    between atoms: _241  and  _243
REMARK  100  A    between atoms: _243  and  _244
REMARK  101  A    between atoms: _243  and  _246
REMARK  102  A    between atoms: _249  and  _251
REMARK  103  A    between atoms: _251  and  _252
REMARK  104  A    between atoms: _251  and  _254
REMARK  105  A    between atoms: _254  and  _255
REMARK  106  A    between atoms: _255  and  _256
REMARK  107  A    between atoms: _256  and  _257
REMARK  108  A    between atoms: _257  and  _258
REMARK  109  A    between atoms: _262  and  _264
REMARK  110  A    between atoms: _264  and  _265
REMARK  111  A    between atoms: _264  and  _267
REMARK  112  A    between atoms: _267  and  _268
REMARK  113  A    between atoms: _271  and  _273
REMARK  114  A    between atoms: _273  and  _274
REMARK  115  A    between atoms: _276  and  _278
REMARK  116  A    between atoms: _278  and  _279
REMARK  117  A    between atoms: _282  and  _284
REMARK  118  A    between atoms: _284  and  _285
REMARK  119  A    between atoms: _284  and  _287
REMARK  120  A    between atoms: _287  and  _288
REMARK  121  A    between atoms: _291  and  _293
REMARK  122  A    between atoms: _293  and  _294
REMARK  123  A    between atoms: _293  and  _296
REMARK  124  A    between atoms: _296  and  _297
REMARK  125  A    between atoms: _297  and  _298
REMARK  126  A    between atoms: _300  and  _302
REMARK  127  A    between atoms: _302  and  _303
REMARK  128  A    between atoms: _302  and  _305
REMARK  129  A    between atoms: _305  and  _306
REMARK  130  A    between atoms: _309  and  _311
REMARK  131  A    between atoms: _311  and  _312
REMARK  132  A    between atoms: _311  and  _314
REMARK  133  A    between atoms: _314  and  _315
REMARK  134  A    between atoms: _321  and  _323
REMARK  135  A    between atoms: _323  and  _324
REMARK  136  A    between atoms: _323  and  _326
REMARK  137  A    between atoms: _329  and  _331
REMARK  138  A    between atoms: _331  and  _332
REMARK  139  A    between atoms: _331  and  _334
REMARK  140  A    between atoms: _334  and  _335
REMARK  141  A    between atoms: _335  and  _336
REMARK  142  A    between atoms: _336  and  _337
REMARK  143  A    between atoms: _337  and  _338
REMARK  144  A    between atoms: _342  and  _344
REMARK  145  A    between atoms: _344  and  _345
REMARK  146  A    between atoms: _344  and  _347
REMARK  147  A    between atoms: _347  and  _348
REMARK  148  A    between atoms: _353  and  _355
REMARK  149  A    between atoms: _355  and  _356
REMARK  150  A    between atoms: _355  and  _358
REMARK  151  A    between atoms: _358  and  _359
REMARK  152  A    between atoms: _364  and  _366
REMARK  153  A    between atoms: _366  and  _367
REMARK  154  A    between atoms: _366  and  _369
REMARK  155  A    between atoms: _369  and  _370
REMARK  156  A    between atoms: _370  and  _371
REMARK  157  A    between atoms: _374  and  _376
REMARK  158  A    between atoms: _376  and  _377
REMARK  159  A    between atoms: _376  and  _379
REMARK  160  A    between atoms: _379  and  _380
REMARK  161  A    between atoms: _383  and  _385
REMARK  162  A    between atoms: _385  and  _386
REMARK  163  A    between atoms: _385  and  _388
REMARK  164  A    between atoms: _388  and  _389
REMARK  165  A    between atoms: _392  and  _394
REMARK  166  A    between atoms: _394  and  _395
REMARK  167  A    between atoms: _394  and  _397
REMARK  168  A    between atoms: _397  and  _398
REMARK  169  A    between atoms: _401  and  _403
REMARK  170  A    between atoms: _403  and  _404
REMARK  171  A    between atoms: _403  and  _406
REMARK  172  A    between atoms: _406  and  _407
REMARK  173  A    between atoms: _407  and  _408
REMARK  174  A    between atoms: _410  and  _412
REMARK  175  A    between atoms: _412  and  _413
REMARK  176  A    between atoms: _412  and  _415
REMARK  177  A    between atoms: _415  and  _416
REMARK  178  A    between atoms: _416  and  _417
REMARK  179  A    between atoms: _420  and  _422
REMARK  180  A    between atoms: _422  and  _423
REMARK  181  A    between atoms: _422  and  _425
REMARK  182  A    between atoms: _425  and  _426
REMARK  183  A    between atoms: _428  and  _430
REMARK  184  A    between atoms: _430  and  _431
REMARK  185  A    between atoms: _430  and  _433
REMARK  186  A    between atoms: _433  and  _434
REMARK  187  A    between atoms: _437  and  _439
REMARK  188  A    between atoms: _439  and  _440
REMARK  189  A    between atoms: _439  and  _442
REMARK  190  A    between atoms: _442  and  _443
REMARK  191  A    between atoms: _446  and  _448
REMARK  192  A    between atoms: _448  and  _449
REMARK  193  A    between atoms: _448  and  _451
REMARK  194  A    between atoms: _451  and  _452
REMARK  195  A    between atoms: _455  and  _457
REMARK  196  A    between atoms: _457  and  _458
REMARK  197  A    between atoms: _457  and  _460
REMARK  198  A    between atoms: _460  and  _461
REMARK  199  A    between atoms: _464  and  _466
REMARK  200  A    between atoms: _466  and  _467
REMARK  201  A    between atoms: _466  and  _469
REMARK  202  A    between atoms: _469  and  _470
REMARK  203  A    between atoms: _470  and  _471
REMARK  204  A    between atoms: _471  and  _472
REMARK  205  A    between atoms: _472  and  _473
REMARK  206  A    between atoms: _477  and  _479
REMARK  207  A    between atoms: _479  and  _480
REMARK  208  A    between atoms: _482  and  _484
REMARK  209  A    between atoms: _484  and  _485
REMARK  210  A    between atoms: _484  and  _487
REMARK  211  A    between atoms: _487  and  _488
REMARK  212  A    between atoms: _493  and  _494
REMARK  213  A    between atoms: _496  and  _498
REMARK  214  A    between atoms: _498  and  _499
REMARK  215  A    between atoms: _501  and  _503
REMARK  216  A    between atoms: _503  and  _504
REMARK  217  A    between atoms: _503  and  _506
REMARK  218  A    between atoms: _506  and  _507
REMARK                            x       y       z     vdW  Elec       q    Type
REMARK                         _______ _______ _______ _____ _____    ______ ____
ROOT
ATOM      1  CA  MET A   1      12.852  33.273   6.383  0.00  0.00    +0.134 C 
ENDROOT
BRANCH   1   2
ATOM      2  N   MET A   1      12.260  34.586   6.146  0.00  0.00    -0.239 NA
ATOM      3  H   MET A   1      11.234  34.662   5.996  0.00  0.00    +0.142 HD
ENDBRANCH   1   2
BRANCH   1   4
ATOM      4  C   MET A   1      11.946  32.229   5.755  0.00  0.00    +0.224 C 
ATOM      5  O   MET A   1      10.717  32.364   5.800  0.00  0.00    -0.287 OA
ENDBRANCH   1   4
BRANCH   1   6
ATOM      6  CB  MET A   1      12.977  33.019   7.891  0.00  0.00    +0.037 C 
BRANCH   6   7
ATOM      7  CG  MET A   1      13.641  31.686   8.267  0.00  0.00    +0.059 C 
BRANCH   7   8
ATOM      8  SD  MET A   1      13.751  31.485  10.061  0.00  0.00    -0.139 S 
ATOM      9  CE  MET A   1      15.238  32.435  10.423  0.00  0.00    +0.069 C 
ENDBRANCH   7   8
ENDBRANCH   6   7
ENDBRANCH   1   6
TORSDOF 5
REMARK  Name = ../refined-set-2016/4nwc/4nwc_pocket.pdb
REMARK  218 active torsions:
REMARK  status: ('A' for Active; 'I' for Inactive)
REMARK    1  A    between atoms: _1  and  _3
REMARK    2  A    between atoms: _3  and  _4
REMARK    3  A    between atoms: _3  and  _6
REMARK    4  A    between atoms: _6  and  _7
REMARK    5  A    between atoms: _10  and  _12
REMARK    6  A    between atoms: _12  and  _13
REMARK    7  A    between atoms: _12  and  _15
REMARK    8  A    between atoms: _15  and  _16
REMARK    9  A    between atoms: _19  and  _21
REMARK   10  A    between atoms: _21  and  _22
REMARK   11  A    between atoms: _21  and  _24
REMARK   12  A    between atoms: _24  and  _25
REMARK   13  A    between atoms: _25  and  _26
REMARK   14  A    between atoms: _29  and  _31
REMARK   15  A    between atoms: _31  and  _32
REMARK   16  A    between atoms: _31  and  _34
REMARK   17  A    between atoms: _34  and  _35
REMARK   18  A    between atoms: _35  and  _36
REMARK   19  A    between atoms: _40  and  _41
REMARK   20  A    between atoms: _46  and  _48
REMARK   21  A    between atoms: _48  and  _49
REMARK   22  A    between atoms: _48  and  _51
REMARK   23  A    between atoms: _51  and  _52
REMARK   24  A    between atoms: _58  and  _60
REMARK   25  A    between atoms: _60  and  _61
REMARK   26  A    between atoms: _60  and  _63
REMARK   27  A    between atoms: _63  and  _64
REMARK   28  A    between atoms: _64  and  _65
REMARK   29  A    between atoms: _65  and  _66
REMARK   30  A    between atoms: _66  and  _67
REMARK   31  A    between atoms: _71  and  _73
REMARK   32  A    between atoms: _73  and  _74
REMARK   33  A    between atoms: _73  and  _76
REMARK   34  A    between atoms: _76  and  _77
REMARK   35  A    between atoms: _82  and  _83
REMARK   36  A    between atoms: _85  and  _87
REMARK   37  A    between atoms: _87  and  _88
REMARK   38  A    between atoms: _90  and  _92
REMARK   39  A    between atoms: _92  and  _93
REMARK   40  A    between atoms: _96  and  _98
REMARK   41  A    between atoms: _98  and  _99
REMARK   42  A    between atoms: _98  and  _101
REMARK   43  A    between atoms: _101  and  _102
REMARK   44  A    between atoms: _102  and  _103
REMARK   45  A    between atoms: _105  and  _107
REMARK   46  A    between atoms: _107  and  _108
REMARK   47  A    between atoms: _107  and  _110
REMARK   48  A    between atoms: _113  and  _115
REMARK   49  A    between atoms: _115  and  _116
REMARK   50  A    between atoms: _120  and  _121
REMARK   51  A    between atoms: _126  and  _128
REMARK   52  A    between atoms: _128  and  _129
REMARK   53  A    between atoms: _128  and  _131
REMARK   54  A    between atoms: _131  and  _132
REMARK   55  A    between atoms: _135  and  _137
REMARK   56  A    between atoms: _137  and  _138
REMARK   57  A    between atoms: _137  and  _140
REMARK   58  A    between atoms: _140  and  _141
REMARK   59  A    between atoms: _144  and  _146
REMARK   60  A    between atoms: _146  and  _147
REMARK   61  A    between atoms: _146  and  _149
REMARK   62  A    between atoms: _149  and  _150
REMARK   63  A    between atoms: _153  and  _155
REMARK   64  A    between atoms: _155  and  _156
REMARK   65  A    between atoms: _155  and  _158
REMARK   66  A    between atoms: _158  and  _159
REMARK   67  A    between atoms: _162  and  _164
REMARK   68  A    between atoms: _164  and  _165
REMARK   69  A    between atoms: _164  and  _167
REMARK   70  A    between atoms: _167  and  _168
REMARK   71  A    between atoms: _168  and  _169
REMARK   72  A    between atoms: _169  and  _170
REMARK   73  A    between atoms: _179  and  _181
REMARK   74  A    between atoms: _181  and  _182
REMARK   75  A    between atoms: _181  and  _184
REMARK   76  A    between atoms: _184  and  _185
REMARK   77  A    between atoms: _191  and  _193
REMARK   78  A    between atoms: _193  and  _194
REMARK   79  A    between atoms: _193  and  _196
REMARK   80  A    between atoms: _196  and  _197
REMARK   81  A    between atoms: _197  and  _198
REMARK   82  A    between atoms: _200  and  _202
REMARK   83  A    between atoms: _202  and  _203
REMARK   84  A    between atoms: _202  and  _205
REMARK   85  A    between atoms: _205  and  _206
REMARK   86  A    between atoms: _209  and  _211
REMARK   87  A    between atoms: _211  and  _212
REMARK   88  A    between atoms: _214  and  _216
REMARK   89  A    between atoms: _216  and  _217
REMARK   90  A    between atoms: _216  and  _219
REMARK   91  A    between atoms: _222  and  _224
REMARK   92  A    between atoms: _224  and  _225
REMARK   93  A    between atoms: _224  and  _227
REMARK   94  A    between atoms: _227  and  _228
REMARK   95  A    between atoms: _230  and  _232
REMARK   96  A    between atoms: _232  and  _233
REMARK   97  A    between atoms: _235  and  _237
REMARK   98  A    between atoms: _237  and  _238
REMARK   99  A    between atoms: _241  and  _243
REMARK  100  A    between atoms: _243  and  _244
REMARK  101  A    between atoms: _243  and  _246
REMARK  102  A    between atoms: _249  and  _251
REMARK  103  A    between atoms: _251  and  _252
REMARK  104  A    between atoms: _251  and  _254
REMARK  105  A    between atoms: _254  and  _255
REMARK  106  A    between atoms: _255  and  _256
REMARK  107  A    between atoms: _256  and  _257
REMARK  108  A    between atoms: _257  and  _258
REMARK  109  A    between atoms: _262  and  _264
REMARK  110  A    between atoms: _264  and  _265
REMARK  111  A    between atoms: _264  and  _267
REMARK  112  A    between atoms: _267  and  _268
REMARK  113  A    between atoms: _271  and  _273
REMARK  114  A    between atoms: _273  and  _274
REMARK  115  A    between atoms: _276  and  _278
REMARK  116  A    between atoms: _278  and  _279
REMARK  117  A    between atoms: _282  and  _284
REMARK  118  A    between atoms: _284  and  _285
REMARK  119  A    between atoms: _284  and  _287
REMARK  120  A    between atoms: _287  and  _288
REMARK  121  A    between atoms: _291  and  _293
REMARK  122  A    between atoms: _293  and  _294
REMARK  123  A    between atoms: _293  and  _296
REMARK  124  A    between atoms: _296  and  _297
REMARK  125  A    between atoms: _297  and  _298
REMARK  126  A    between atoms: _300  and  _302
REMARK  127  A    between atoms: _302  and  _303
REMARK  128  A    between atoms: _302  and  _305
REMARK  129  A    between atoms: _305  and  _306
REMARK  130  A    between atoms: _309  and  _311
REMARK  131  A    between atoms: _311  and  _312
REMARK  132  A    between atoms: _311  and  _314
REMARK  133  A    between atoms: _314  and  _315
REMARK  134  A    between atoms: _321  and  _323
REMARK  135  A    between atoms: _323  and  _324
REMARK  136  A    between atoms: _323  and  _326
REMARK  137  A    between atoms: _329  and  _331
REMARK  138  A    between atoms: _331  and  _332
REMARK  139  A    between atoms: _331  and  _334
REMARK  140  A    between atoms: _334  and  _335
REMARK  141  A    between atoms: _335  and  _336
REMARK  142  A    between atoms: _336  and  _337
REMARK  143  A    between atoms: _337  and  _338
REMARK  144  A    between atoms: _342  and  _344
REMARK  145  A    between atoms: _344  and  _345
REMARK  146  A    between atoms: _344  and  _347
REMARK  147  A    between atoms: _347  and  _348
REMARK  148  A    between atoms: _353  and  _355
REMARK  149  A    between atoms: _355  and  _356
REMARK  150  A    between atoms: _355  and  _358
REMARK  151  A    between atoms: _358  and  _359
REMARK  152  A    between atoms: _364  and  _366
REMARK  153  A    between atoms: _366  and  _367
REMARK  154  A    between atoms: _366  and  _369
REMARK  155  A    between atoms: _369  and  _370
REMARK  156  A    between atoms: _370  and  _371
REMARK  157  A    between atoms: _374  and  _376
REMARK  158  A    between atoms: _376  and  _377
REMARK  159  A    between atoms: _376  and  _379
REMARK  160  A    between atoms: _379  and  _380
REMARK  161  A    between atoms: _383  and  _385
REMARK  162  A    between atoms: _385  and  _386
REMARK  163  A    between atoms: _385  and  _388
REMARK  164  A    between atoms: _388  and  _389
REMARK  165  A    between atoms: _392  and  _394
REMARK  166  A    between atoms: _394  and  _395
REMARK  167  A    between atoms: _394  and  _397
REMARK  168  A    between atoms: _397  and  _398
REMARK  169  A    between atoms: _401  and  _403
REMARK  170  A    between atoms: _403  and  _404
REMARK  171  A    between atoms: _403  and  _406
REMARK  172  A    between atoms: _406  and  _407
REMARK  173  A    between atoms: _407  and  _408
REMARK  174  A    between atoms: _410  and  _412
REMARK  175  A    between atoms: _412  and  _413
REMARK  176  A    between atoms: _412  and  _415
REMARK  177  A    between atoms: _415  and  _416
REMARK  178  A    between atoms: _416  and  _417
REMARK  179  A    between atoms: _420  and  _422
REMARK  180  A    between atoms: _422  and  _423
REMARK  181  A    between atoms: _422  and  _425
REMARK  182  A    between atoms: _425  and  _426
REMARK  183  A    between atoms: _428  and  _430
REMARK  184  A    between atoms: _430  and  _431
REMARK  185  A    between atoms: _430  and  _433
REMARK  186  A    between atoms: _433  and  _434
REMARK  187  A    between atoms: _437  and  _439
REMARK  188  A    between atoms: _439  and  _440
REMARK  189  A    between atoms: _439  and  _442
REMARK  190  A    between atoms: _442  and  _443
REMARK  191  A    between atoms: _446  and  _448
REMARK  192  A    between atoms: _448  and  _449
REMARK  193  A    between atoms: _448  and  _451
REMARK  194  A    between atoms: _451  and  _452
REMARK  195  A    between atoms: _455  and  _457
REMARK  196  A    between atoms: _457  and  _458
REMARK  197  A    between atoms: _457  and  _460
REMARK  198  A    between atoms: _460  and  _461
REMARK  199  A    between atoms: _464  and  _466
REMARK  200  A    between atoms: _466  and  _467
REMARK  201  A    between atoms: _466  and  _469
REMARK  202  A    between atoms: _469  and  _470
REMARK  203  A    between atoms: _470  and  _471
REMARK  204  A    between atoms: _471  and  _472
REMARK  205  A    between atoms: _472  and  _473
REMARK  206  A    between atoms: _477  and  _479
REMARK  207  A    between atoms: _479  and  _480
REMARK  208  A    between atoms: _482  and  _484
REMARK  209  A    between atoms: _484  and  _485
REMARK  210  A    between atoms: _484  and  _487
REMARK  211  A    between atoms: _487  and  _488
REMARK  212  A    between atoms: _493  and  _494
REMARK  213  A    between atoms: _496  and  _498
REMARK  214  A    between atoms: _498  and  _499
REMARK  215  A    between atoms: _501  and  _503
REMARK  216  A    between atoms: _503  and  _504
REMARK  217  A    between atoms: _503  and  _506
REMARK  218  A    between atoms: _506  and  _507
REMARK                            x       y       z     vdW  Elec       q    Type
REMARK                         _______ _______ _______ _____ _____    ______ ____
ROOT
ATOM      1  C   GLY A   2       8.342  23.060   7.578  0.00  0.00    +0.243 C 
ATOM      2  O   GLY A   2       9.042  23.138   8.594  0.00  0.00    -0.273 OA
ATOM      3  N   VAL A   3       7.206  22.380   7.538  0.00  0.00    -0.297 N 
ATOM      4  H   VAL A   3       6.605  22.425   6.690  0.00  0.00    +0.150 HD
ENDROOT
BRANCH   1   5
ATOM      5  CA  GLY A   2       8.752  23.762   6.301  0.00  0.00    +0.176 C 
BRANCH   5   7
ATOM      6  C   LEU A   1       9.954  25.806   5.822  0.00  0.00    +0.238 C 
ATOM      7  N   GLY A   2       9.800  24.724   6.575  0.00  0.00    -0.296 N 
ATOM      8  H   GLY A   2      10.443  24.564   7.376  0.00  0.00    +0.150 HD
ATOM      9  O   LEU A   1       9.315  26.001   4.783  0.00  0.00    -0.274 OA
BRANCH   6  10
ATOM     10  CA  LEU A   1      10.980  26.813   6.304  0.00  0.00    +0.145 C 
BRANCH  10  11
ATOM     11  N   LEU A   1      10.960  27.972   5.420  0.00  0.00    -0.238 NA
ATOM     12  H   LEU A   1      10.152  28.118   4.782  0.00  0.00    +0.142 HD
ENDBRANCH  10  11
BRANCH  10  13
ATOM     13  CB  LEU A   1      10.630  27.251   7.724  0.00  0.00    +0.026 C 
BRANCH  13  14
ATOM     14  CG  LEU A   1       9.312  28.023   7.683  0.00  0.00    +0.002 C 
ATOM     15  CD2 LEU A   1       8.281  27.436   8.617  0.00  0.00    +0.000 C 
ATOM     16  CD1 LEU A   1       9.542  29.506   7.957  0.00  0.00    +0.000 C 
ENDBRANCH  13  14
ENDBRANCH  10  13
ENDBRANCH   6  10
ENDBRANCH   5   7
ENDBRANCH   1   5
BRANCH   3  17
ATOM     17  CA  VAL A   3       6.796  21.571   8.674  0.00  0.00    +0.149 C 
BRANCH  17  18
ATOM     18  C   VAL A   3       7.593  20.281   8.686  0.00  0.00    +0.241 C 
ATOM     19  N   SER A   4       8.054  19.880   9.866  0.00  0.00    -0.296 N 
ATOM     20  H   SER A   4       7.958  20.502  10.694  0.00  0.00    +0.150 HD
ATOM     21  O   VAL A   3       7.796  19.656   7.640  0.00  0.00    -0.273 OA
BRANCH  19  22
ATOM     22  CA  SER A   4       8.691  18.582  10.011  0.00  0.00    +0.166 C 
BRANCH  22  23
ATOM     23  CB  SER A   4       8.324  18.030  11.393  0.00  0.00    +0.229 C 
ATOM     24  OG  SER A   4       7.404  18.537  12.047  0.00  0.00    -0.286 OA
ENDBRANCH  22  23
BRANCH  22  25
ATOM     25  C   SER A   4      10.209  18.700   9.827  0.00  0.00    +0.165 C 
BRANCH  25  26
ATOM     26  O   SER A   4      10.820  17.432   9.630  0.00  0.00    -0.380 OA
ATOM     27  H   SER A   4      10.441  17.007   8.820  0.00  0.00    +0.211 HD
ENDBRANCH  25  26
ENDBRANCH  22  25
ENDBRANCH  19  22
ENDBRANCH  17  18
BRANCH  17  28
ATOM     28  CB  VAL A   3       5.305  21.248   8.610  0.00  0.00    +0.027 C 
ATOM     29  CG2 VAL A   3       4.895  20.368   9.778  0.00  0.00    +0.002 C 
ATOM     30  CG1 VAL A   3       4.509  22.538   8.609  0.00  0.00    +0.002 C 
ENDBRANCH  17  28
ENDBRANCH   3  17
TORSDOF 13
REMARK  Name = ../refined-set-2016/4nwc/4nwc_pocket.pdb
REMARK  218 active torsions:
REMARK  status: ('A' for Active; 'I' for Inactive)
REMARK    1  A    between atoms: _1  and  _3
REMARK    2  A    between atoms: _3  and  _4
REMARK    3  A    between atoms: _3  and  _6
REMARK    4  A    between atoms: _6  and  _7
REMARK    5  A    between atoms: _10  and  _12
REMARK    6  A    between atoms: _12  and  _13
REMARK    7  A    between atoms: _12  and  _15
REMARK    8  A    between atoms: _15  and  _16
REMARK    9  A    between atoms: _19  and  _21
REMARK   10  A    between atoms: _21  and  _22
REMARK   11  A    between atoms: _21  and  _24
REMARK   12  A    between atoms: _24  and  _25
REMARK   13  A    between atoms: _25  and  _26
REMARK   14  A    between atoms: _29  and  _31
REMARK   15  A    between atoms: _31  and  _32
REMARK   16  A    between atoms: _31  and  _34
REMARK   17  A    between atoms: _34  and  _35
REMARK   18  A    between atoms: _35  and  _36
REMARK   19  A    between atoms: _40  and  _41
REMARK   20  A    between atoms: _46  and  _48
REMARK   21  A    between atoms: _48  and  _49
REMARK   22  A    between atoms: _48  and  _51
REMARK   23  A    between atoms: _51  and  _52
REMARK   24  A    between atoms: _58  and  _60
REMARK   25  A    between atoms: _60  and  _61
REMARK   26  A    between atoms: _60  and  _63
REMARK   27  A    between atoms: _63  and  _64
REMARK   28  A    between atoms: _64  and  _65
REMARK   29  A    between atoms: _65  and  _66
REMARK   30  A    between atoms: _66  and  _67
REMARK   31  A    between atoms: _71  and  _73
REMARK   32  A    between atoms: _73  and  _74
REMARK   33  A    between atoms: _73  and  _76
REMARK   34  A    between atoms: _76  and  _77
REMARK   35  A    between atoms: _82  and  _83
REMARK   36  A    between atoms: _85  and  _87
REMARK   37  A    between atoms: _87  and  _88
REMARK   38  A    between atoms: _90  and  _92
REMARK   39  A    between atoms: _92  and  _93
REMARK   40  A    between atoms: _96  and  _98
REMARK   41  A    between atoms: _98  and  _99
REMARK   42  A    between atoms: _98  and  _101
REMARK   43  A    between atoms: _101  and  _102
REMARK   44  A    between atoms: _102  and  _103
REMARK   45  A    between atoms: _105  and  _107
REMARK   46  A    between atoms: _107  and  _108
REMARK   47  A    between atoms: _107  and  _110
REMARK   48  A    between atoms: _113  and  _115
REMARK   49  A    between atoms: _115  and  _116
REMARK   50  A    between atoms: _120  and  _121
REMARK   51  A    between atoms: _126  and  _128
REMARK   52  A    between atoms: _128  and  _129
REMARK   53  A    between atoms: _128  and  _131
REMARK   54  A    between atoms: _131  and  _132
REMARK   55  A    between atoms: _135  and  _137
REMARK   56  A    between atoms: _137  and  _138
REMARK   57  A    between atoms: _137  and  _140
REMARK   58  A    between atoms: _140  and  _141
REMARK   59  A    between atoms: _144  and  _146
REMARK   60  A    between atoms: _146  and  _147
REMARK   61  A    between atoms: _146  and  _149
REMARK   62  A    between atoms: _149  and  _150
REMARK   63  A    between atoms: _153  and  _155
REMARK   64  A    between atoms: _155  and  _156
REMARK   65  A    between atoms: _155  and  _158
REMARK   66  A    between atoms: _158  and  _159
REMARK   67  A    between atoms: _162  and  _164
REMARK   68  A    between atoms: _164  and  _165
REMARK   69  A    between atoms: _164  and  _167
REMARK   70  A    between atoms: _167  and  _168
REMARK   71  A    between atoms: _168  and  _169
REMARK   72  A    between atoms: _169  and  _170
REMARK   73  A    between atoms: _179  and  _181
REMARK   74  A    between atoms: _181  and  _182
REMARK   75  A    between atoms: _181  and  _184
REMARK   76  A    between atoms: _184  and  _185
REMARK   77  A    between atoms: _191  and  _193
REMARK   78  A    between atoms: _193  and  _194
REMARK   79  A    between atoms: _193  and  _196
REMARK   80  A    between atoms: _196  and  _197
REMARK   81  A    between atoms: _197  and  _198
REMARK   82  A    between atoms: _200  and  _202
REMARK   83  A    between atoms: _202  and  _203
REMARK   84  A    between atoms: _202  and  _205
REMARK   85  A    between atoms: _205  and  _206
REMARK   86  A    between atoms: _209  and  _211
REMARK   87  A    between atoms: _211  and  _212
REMARK   88  A    between atoms: _214  and  _216
REMARK   89  A    between atoms: _216  and  _217
REMARK   90  A    between atoms: _216  and  _219
REMARK   91  A    between atoms: _222  and  _224
REMARK   92  A    between atoms: _224  and  _225
REMARK   93  A    between atoms: _224  and  _227
REMARK   94  A    between atoms: _227  and  _228
REMARK   95  A    between atoms: _230  and  _232
REMARK   96  A    between atoms: _232  and  _233
REMARK   97  A    between atoms: _235  and  _237
REMARK   98  A    between atoms: _237  and  _238
REMARK   99  A    between atoms: _241  and  _243
REMARK  100  A    between atoms: _243  and  _244
REMARK  101  A    between atoms: _243  and  _246
REMARK  102  A    between atoms: _249  and  _251
REMARK  103  A    between atoms: _251  and  _252
REMARK  104  A    between atoms: _251  and  _254
REMARK  105  A    between atoms: _254  and  _255
REMARK  106  A    between atoms: _255  and  _256
REMARK  107  A    between atoms: _256  and  _257
REMARK  108  A    between atoms: _257  and  _258
REMARK  109  A    between atoms: _262  and  _264
REMARK  110  A    between atoms: _264  and  _265
REMARK  111  A    between atoms: _264  and  _267
REMARK  112  A    between atoms: _267  and  _268
REMARK  113  A    between atoms: _271  and  _273
REMARK  114  A    between atoms: _273  and  _274
REMARK  115  A    between atoms: _276  and  _278
REMARK  116  A    between atoms: _278  and  _279
REMARK  117  A    between atoms: _282  and  _284
REMARK  118  A    between atoms: _284  and  _285
REMARK  119  A    between atoms: _284  and  _287
REMARK  120  A    between atoms: _287  and  _288
REMARK  121  A    between atoms: _291  and  _293
REMARK  122  A    between atoms: _293  and  _294
REMARK  123  A    between atoms: _293  and  _296
REMARK  124  A    between atoms: _296  and  _297
REMARK  125  A    between atoms: _297  and  _298
REMARK  126  A    between atoms: _300  and  _302
REMARK  127  A    between atoms: _302  and  _303
REMARK  128  A    between atoms: _302  and  _305
REMARK  129  A    between atoms: _305  and  _306
REMARK  130  A    between atoms: _309  and  _311
REMARK  131  A    between atoms: _311  and  _312
REMARK  132  A    between atoms: _311  and  _314
REMARK  133  A    between atoms: _314  and  _315
REMARK  134  A    between atoms: _321  and  _323
REMARK  135  A    between atoms: _323  and  _324
REMARK  136  A    between atoms: _323  and  _326
REMARK  137  A    between atoms: _329  and  _331
REMARK  138  A    between atoms: _331  and  _332
REMARK  139  A    between atoms: _331  and  _334
REMARK  140  A    between atoms: _334  and  _335
REMARK  141  A    between atoms: _335  and  _336
REMARK  142  A    between atoms: _336  and  _337
REMARK  143  A    between atoms: _337  and  _338
REMARK  144  A    between atoms: _342  and  _344
REMARK  145  A    between atoms: _344  and  _345
REMARK  146  A    between atoms: _344  and  _347
REMARK  147  A    between atoms: _347  and  _348
REMARK  148  A    between atoms: _353  and  _355
REMARK  149  A    between atoms: _355  and  _356
REMARK  150  A    between atoms: _355  and  _358
REMARK  151  A    between atoms: _358  and  _359
REMARK  152  A    between atoms: _364  and  _366
REMARK  153  A    between atoms: _366  and  _367
REMARK  154  A    between atoms: _366  and  _369
REMARK  155  A    between atoms: _369  and  _370
REMARK  156  A    between atoms: _370  and  _371
REMARK  157  A    between atoms: _374  and  _376
REMARK  158  A    between atoms: _376  and  _377
REMARK  159  A    between atoms: _376  and  _379
REMARK  160  A    between atoms: _379  and  _380
REMARK  161  A    between atoms: _383  and  _385
REMARK  162  A    between atoms: _385  and  _386
REMARK  163  A    between atoms: _385  and  _388
REMARK  164  A    between atoms: _388  and  _389
REMARK  165  A    between atoms: _392  and  _394
REMARK  166  A    between atoms: _394  and  _395
REMARK  167  A    between atoms: _394  and  _397
REMARK  168  A    between atoms: _397  and  _398
REMARK  169  A    between atoms: _401  and  _403
REMARK  170  A    between atoms: _403  and  _404
REMARK  171  A    between atoms: _403  and  _406
REMARK  172  A    between atoms: _406  and  _407
REMARK  173  A    between atoms: _407  and  _408
REMARK  174  A    between atoms: _410  and  _412
REMARK  175  A    between atoms: _412  and  _413
REMARK  176  A    between atoms: _412  and  _415
REMARK  177  A    between atoms: _415  and  _416
REMARK  178  A    between atoms: _416  and  _417
REMARK  179  A    between atoms: _420  and  _422
REMARK  180  A    between atoms: _422  and  _423
REMARK  181  A    between atoms: _422  and  _425
REMARK  182  A    between atoms: _425  and  _426
REMARK  183  A    between atoms: _428  and  _430
REMARK  184  A    between atoms: _430  and  _431
REMARK  185  A    between atoms: _430  and  _433
REMARK  186  A    between atoms: _433  and  _434
REMARK  187  A    between atoms: _437  and  _439
REMARK  188  A    between atoms: _439  and  _440
REMARK  189  A    between atoms: _439  and  _442
REMARK  190  A    between atoms: _442  and  _443
REMARK  191  A    between atoms: _446  and  _448
REMARK  192  A    between atoms: _448  and  _449
REMARK  193  A    between atoms: _448  and  _451
REMARK  194  A    between atoms: _451  and  _452
REMARK  195  A    between atoms: _455  and  _457
REMARK  196  A    between atoms: _457  and  _458
REMARK  197  A    between atoms: _457  and  _460
REMARK  198  A    between atoms: _460  and  _461
REMARK  199  A    between atoms: _464  and  _466
REMARK  200  A    between atoms: _466  and  _467
REMARK  201  A    between atoms: _466  and  _469
REMARK  202  A    between atoms: _469  and  _470
REMARK  203  A    between atoms: _470  and  _471
REMARK  204  A    between atoms: _471  and  _472
REMARK  205  A    between atoms: _472  and  _473
REMARK  206  A    between atoms: _477  and  _479
REMARK  207  A    between atoms: _479  and  _480
REMARK  208  A    between atoms: _482  and  _484
REMARK  209  A    between atoms: _484  and  _485
REMARK  210  A    between atoms: _484  and  _487
REMARK  211  A    between atoms: _487  and  _488
REMARK  212  A    between atoms: _493  and  _494
REMARK  213  A    between atoms: _496  and  _498
REMARK  214  A    between atoms: _498  and  _499
REMARK  215  A    between atoms: _501  and  _503
REMARK  216  A    between atoms: _503  and  _504
REMARK  217  A    between atoms: _503  and  _506
REMARK  218  A    between atoms: _506  and  _507
REMARK                            x       y       z     vdW  Elec       q    Type
REMARK                         _______ _______ _______ _____ _____    ______ ____
ROOT
ATOM      1  C   GLY A   6      -0.991  27.466  13.766  0.00  0.00    +0.243 C 
ATOM      2  O   GLY A   6      -1.961  26.776  13.445  0.00  0.00    -0.273 OA
ATOM      3  N   ALA A   7      -0.065  27.849  12.898  0.00  0.00    -0.297 N 
ATOM      4  H   ALA A   7       0.763  28.378  13.240  0.00  0.00    +0.150 HD
ENDROOT
BRANCH   3   5
ATOM      5  CA  ALA A   7      -0.178  27.548  11.478  0.00  0.00    +0.149 C 
ATOM      6  CB  ALA A   7       0.875  28.322  10.698  0.00  0.00    +0.031 C 
BRANCH   5   7
ATOM      7  C   ALA A   7      -0.066  26.063  11.193  0.00  0.00    +0.241 C 
ATOM      8  N   THR A   8       0.736  25.360  11.982  0.00  0.00    -0.295 N 
ATOM      9  H   THR A   8       1.243  25.823  12.763  0.00  0.00    +0.150 HD
ATOM     10  O   ALA A   7      -0.700  25.545  10.265  0.00  0.00    -0.273 OA
BRANCH   8  11
ATOM     11  CA  THR A   8       0.899  23.929  11.743  0.00  0.00    +0.176 C 
BRANCH  11  12
ATOM     12  C   THR A   8      -0.393  23.167  12.035  0.00  0.00    +0.243 C 
ATOM     13  N   MET A   9      -1.024  23.475  13.167  0.00  0.00    -0.297 N 
ATOM     14  H   MET A   9      -0.576  24.127  13.842  0.00  0.00    +0.150 HD
ATOM     15  O   THR A   8      -0.808  22.307  11.245  0.00  0.00    -0.273 OA
BRANCH  13  16
ATOM     16  CA  MET A   9      -2.340  22.909  13.475  0.00  0.00    +0.149 C 
BRANCH  16  17
ATOM     17  C   MET A   9      -3.309  23.166  12.325  0.00  0.00    +0.241 C 
ATOM     18  N   THR A  10      -3.377  24.419  11.880  0.00  0.00    -0.295 N 
ATOM     19  H   THR A  10      -2.753  25.143  12.289  0.00  0.00    +0.150 HD
ATOM     20  O   MET A   9      -3.978  22.246  11.843  0.00  0.00    -0.273 OA
BRANCH  18  21
ATOM     21  CA  THR A  10      -4.317  24.790  10.825  0.00  0.00    +0.176 C 
BRANCH  21  22
ATOM     22  C   THR A  10      -4.002  24.042   9.520  0.00  0.00    +0.243 C 
ATOM     23  N   PHE A  11      -2.717  23.846   9.233  0.00  0.00    -0.298 N 
ATOM     24  H   PHE A  11      -1.991  24.225   9.874  0.00  0.00    +0.150 HD
ATOM     25  O   THR A  10      -4.909  23.647   8.801  0.00  0.00    -0.273 OA
BRANCH  23  26
ATOM     26  CA  PHE A  11      -2.303  23.113   8.042  0.00  0.00    +0.141 C 
BRANCH  26  27
ATOM     27  C   PHE A  11      -2.920  21.712   8.035  0.00  0.00    +0.227 C 
ATOM     28  O   PHE A  11      -3.513  21.285   7.044  0.00  0.00    -0.286 OA
ENDBRANCH  26  27
BRANCH  26  29
ATOM     29  CB  PHE A  11      -0.775  23.029   7.973  0.00  0.00    +0.054 C 
BRANCH  29  30
ATOM     30  CG  PHE A  11      -0.265  22.075   6.923  0.00  0.00    -0.020 A 
ATOM     31  CD2 PHE A  11       0.034  20.757   7.244  0.00  0.00    -0.004 A 
ATOM     32  CE2 PHE A  11       0.504  19.874   6.272  0.00  0.00    -0.000 A 
ATOM     33  CZ  PHE A  11       0.686  20.316   4.965  0.00  0.00    -0.000 A 
ATOM     34  CE1 PHE A  11       0.398  21.629   4.638  0.00  0.00    -0.000 A 
ATOM     35  CD1 PHE A  11      -0.077  22.500   5.613  0.00  0.00    -0.004 A 
ENDBRANCH  29  30
ENDBRANCH  26  29
ENDBRANCH  23  26
ENDBRANCH  21  22
BRANCH  21  36
ATOM     36  CB  THR A  10      -4.357  26.324  10.604  0.00  0.00    +0.137 C 
ATOM     37  CG2 THR A  10      -5.305  26.691   9.461  0.00  0.00    +0.034 C 
BRANCH  36  38
ATOM     38  OG1 THR A  10      -4.810  26.969  11.805  0.00  0.00    -0.382 OA
ATOM     39  HG1 THR A  10      -5.717  26.644  12.031  0.00  0.00    +0.210 HD
ENDBRANCH  36  38
ENDBRANCH  21  36
ENDBRANCH  18  21
ENDBRANCH  16  17
BRANCH  16  40
ATOM     40  CB  MET A   9      -2.906  23.523  14.758  0.00  0.00    +0.041 C 
BRANCH  40  41
ATOM     41  CG  MET A   9      -4.217  22.897  15.221  0.00  0.00    +0.060 C 
BRANCH  41  42
ATOM     42  SD  MET A   9      -5.222  24.067  16.168  0.00  0.00    -0.139 S 
ATOM     43  CE  MET A   9      -5.748  25.173  14.853  0.00  0.00    +0.069 C 
ENDBRANCH  41  42
ENDBRANCH  40  41
ENDBRANCH  16  40
ENDBRANCH  13  16
ENDBRANCH  11  12
BRANCH  11  44
ATOM     44  CB  THR A   8       2.048  23.335  12.562  0.00  0.00    +0.137 C 
ATOM     45  CG2 THR A   8       2.182  21.853  12.257  0.00  0.00    +0.034 C 
BRANCH  44  46
ATOM     46  OG1 THR A   8       3.270  23.997  12.210  0.00  0.00    -0.382 OA
ATOM     47  HG1 THR A   8       3.188  24.964  12.405  0.00  0.00    +0.210 HD
ENDBRANCH  44  46
ENDBRANCH  11  44
ENDBRANCH   8  11
ENDBRANCH   5   7
ENDBRANCH   3   5
BRANCH   1  48
ATOM     48  CA  GLY A   6      -0.778  27.901  15.211  0.00  0.00    +0.176 C 
BRANCH  48  51
ATOM     49  C   ASP A   5      -2.746  28.380  16.559  0.00  0.00    +0.241 C 
ATOM     50  O   ASP A   5      -2.613  29.609  16.450  0.00  0.00    -0.273 OA
ATOM     51  N   GLY A   6      -1.884  27.500  16.060  0.00  0.00    -0.295 N 
ATOM     52  H   GLY A   6      -2.006  26.492  16.285  0.00  0.00    +0.150 HD
BRANCH  49  53
ATOM     53  CA  ASP A   5      -3.943  27.779  17.283  0.00  0.00    +0.160 C 
BRANCH  53  56
ATOM     54  C   LYS A   4      -2.818  26.285  18.900  0.00  0.00    +0.241 C 
ATOM     55  O   LYS A   4      -2.126  27.184  19.366  0.00  0.00    -0.273 OA
ATOM     56  N   ASP A   5      -3.679  26.469  17.900  0.00  0.00    -0.297 N 
ATOM     57  H   ASP A   5      -4.193  25.642  17.535  0.00  0.00    +0.150 HD
BRANCH  54  58
ATOM     58  CA  LYS A   4      -2.711  24.862  19.449  0.00  0.00    +0.149 C 
BRANCH  58  60
ATOM     59  C   VAL A   3      -0.486  24.387  18.595  0.00  0.00    +0.241 C 
ATOM     60  N   LYS A   4      -1.317  24.472  19.629  0.00  0.00    -0.297 N 
ATOM     61  H   LYS A   4      -0.967  24.256  20.584  0.00  0.00    +0.150 HD
ATOM     62  O   VAL A   3      -0.827  24.646  17.433  0.00  0.00    -0.273 OA
BRANCH  59  63
ATOM     63  CA  VAL A   3       0.937  23.940  18.910  0.00  0.00    +0.149 C 
BRANCH  63  66
ATOM     64  C   ALA A   2       0.778  21.610  18.242  0.00  0.00    +0.241 C 
ATOM     65  O   ALA A   2      -0.039  21.370  19.139  0.00  0.00    -0.273 OA
ATOM     66  N   VAL A   3       1.319  22.811  18.065  0.00  0.00    -0.297 N 
ATOM     67  H   VAL A   3       2.025  22.949  17.314  0.00  0.00    +0.150 HD
BRANCH  64  68
ATOM     68  CA  ALA A   2       1.207  20.510  17.270  0.00  0.00    +0.149 C 
ATOM     69  CB  ALA A   2       0.696  20.809  15.862  0.00  0.00    +0.031 C 
BRANCH  68  71
ATOM     70  C   GLY A   1       1.200  18.075  17.353  0.00  0.00    +0.240 C 
ATOM     71  N   ALA A   2       0.679  19.238  17.731  0.00  0.00    -0.297 N 
ATOM     72  H   ALA A   2      -0.134  19.237  18.379  0.00  0.00    +0.150 HD
ATOM     73  O   GLY A   1       2.236  17.973  16.683  0.00  0.00    -0.274 OA
BRANCH  70  74
ATOM     74  CA  GLY A   1       0.444  16.850  17.814  0.00  0.00    +0.169 C 
BRANCH  74  75
ATOM     75  N   GLY A   1       1.259  15.655  17.781  0.00  0.00    -0.236 NA
ATOM     76  H   GLY A   1       2.279  15.734  17.593  0.00  0.00    +0.142 HD
ENDBRANCH  74  75
ENDBRANCH  70  74
ENDBRANCH  68  71
ENDBRANCH  64  68
ENDBRANCH  63  66
BRANCH  63  77
ATOM     77  CB  VAL A   3       1.898  25.130  18.751  0.00  0.00    +0.027 C 
ATOM     78  CG2 VAL A   3       1.380  26.355  19.532  0.00  0.00    +0.002 C 
ATOM     79  CG1 VAL A   3       3.306  24.748  19.205  0.00  0.00    +0.002 C 
ENDBRANCH  63  77
ENDBRANCH  59  63
ENDBRANCH  58  60
BRANCH  58  80
ATOM     80  CB  LYS A   4      -3.473  24.744  20.772  0.00  0.00    +0.029 C 
BRANCH  80  81
ATOM     81  CG  LYS A   4      -4.950  25.081  20.653  0.00  0.00    +0.000 C 
BRANCH  81  82
ATOM     82  CD  LYS A   4      -5.676  24.883  21.973  0.00  0.00    -0.024 C 
BRANCH  82  83
ATOM     83  CE  LYS A   4      -7.157  25.176  21.832  0.00  0.00    -0.086 C 
BRANCH  83  84
ATOM     84  NZ  LYS A   4      -7.823  25.288  23.164  0.00  0.00    +0.380 N 
ATOM     85  HZ1 LYS A   4      -7.385  26.060  23.706  0.00  0.00    -0.089 HD
ATOM     86  HZ2 LYS A   4      -7.712  24.393  23.682  0.00  0.00    -0.089 HD
ATOM     87  HZ3 LYS A   4      -8.834  25.489  23.029  0.00  0.00    -0.089 HD
ENDBRANCH  83  84
ENDBRANCH  82  83
ENDBRANCH  81  82
ENDBRANCH  80  81
ENDBRANCH  58  80
ENDBRANCH  54  58
ENDBRANCH  53  56
BRANCH  53  88
ATOM     88  CB  ASP A   5      -4.534  28.761  18.298  0.00  0.00    +0.143 C 
BRANCH  88  89
ATOM     89  CG  ASP A   5      -5.892  28.312  18.800  0.00  0.00    +0.367 C 
ATOM     90  OD2 ASP A   5      -6.280  28.679  19.929  0.00  0.00    -0.246 OA
ATOM     91  OD1 ASP A   5      -6.564  27.575  18.052  0.00  0.00    -0.246 OA
ENDBRANCH  88  89
ENDBRANCH  53  88
ENDBRANCH  49  53
ENDBRANCH  48  51
ENDBRANCH   1  48
TORSDOF 39
REMARK  Name = ../refined-set-2016/4nwc/4nwc_pocket.pdb
REMARK  218 active torsions:
REMARK  status: ('A' for Active; 'I' for Inactive)
REMARK    1  A    between atoms: _1  and  _3
REMARK    2  A    between atoms: _3  and  _4
REMARK    3  A    between atoms: _3  and  _6
REMARK    4  A    between atoms: _6  and  _7
REMARK    5  A    between atoms: _10  and  _12
REMARK    6  A    between atoms: _12  and  _13
REMARK    7  A    between atoms: _12  and  _15
REMARK    8  A    between atoms: _15  and  _16
REMARK    9  A    between atoms: _19  and  _21
REMARK   10  A    between atoms: _21  and  _22
REMARK   11  A    between atoms: _21  and  _24
REMARK   12  A    between atoms: _24  and  _25
REMARK   13  A    between atoms: _25  and  _26
REMARK   14  A    between atoms: _29  and  _31
REMARK   15  A    between atoms: _31  and  _32
REMARK   16  A    between atoms: _31  and  _34
REMARK   17  A    between atoms: _34  and  _35
REMARK   18  A    between atoms: _35  and  _36
REMARK   19  A    between atoms: _40  and  _41
REMARK   20  A    between atoms: _46  and  _48
REMARK   21  A    between atoms: _48  and  _49
REMARK   22  A    between atoms: _48  and  _51
REMARK   23  A    between atoms: _51  and  _52
REMARK   24  A    between atoms: _58  and  _60
REMARK   25  A    between atoms: _60  and  _61
REMARK   26  A    between atoms: _60  and  _63
REMARK   27  A    between atoms: _63  and  _64
REMARK   28  A    between atoms: _64  and  _65
REMARK   29  A    between atoms: _65  and  _66
REMARK   30  A    between atoms: _66  and  _67
REMARK   31  A    between atoms: _71  and  _73
REMARK   32  A    between atoms: _73  and  _74
REMARK   33  A    between atoms: _73  and  _76
REMARK   34  A    between atoms: _76  and  _77
REMARK   35  A    between atoms: _82  and  _83
REMARK   36  A    between atoms: _85  and  _87
REMARK   37  A    between atoms: _87  and  _88
REMARK   38  A    between atoms: _90  and  _92
REMARK   39  A    between atoms: _92  and  _93
REMARK   40  A    between atoms: _96  and  _98
REMARK   41  A    between atoms: _98  and  _99
REMARK   42  A    between atoms: _98  and  _101
REMARK   43  A    between atoms: _101  and  _102
REMARK   44  A    between atoms: _102  and  _103
REMARK   45  A    between atoms: _105  and  _107
REMARK   46  A    between atoms: _107  and  _108
REMARK   47  A    between atoms: _107  and  _110
REMARK   48  A    between atoms: _113  and  _115
REMARK   49  A    between atoms: _115  and  _116
REMARK   50  A    between atoms: _120  and  _121
REMARK   51  A    between atoms: _126  and  _128
REMARK   52  A    between atoms: _128  and  _129
REMARK   53  A    between atoms: _128  and  _131
REMARK   54  A    between atoms: _131  and  _132
REMARK   55  A    between atoms: _135  and  _137
REMARK   56  A    between atoms: _137  and  _138
REMARK   57  A    between atoms: _137  and  _140
REMARK   58  A    between atoms: _140  and  _141
REMARK   59  A    between atoms: _144  and  _146
REMARK   60  A    between atoms: _146  and  _147
REMARK   61  A    between atoms: _146  and  _149
REMARK   62  A    between atoms: _149  and  _150
REMARK   63  A    between atoms: _153  and  _155
REMARK   64  A    between atoms: _155  and  _156
REMARK   65  A    between atoms: _155  and  _158
REMARK   66  A    between atoms: _158  and  _159
REMARK   67  A    between atoms: _162  and  _164
REMARK   68  A    between atoms: _164  and  _165
REMARK   69  A    between atoms: _164  and  _167
REMARK   70  A    between atoms: _167  and  _168
REMARK   71  A    between atoms: _168  and  _169
REMARK   72  A    between atoms: _169  and  _170
REMARK   73  A    between atoms: _179  and  _181
REMARK   74  A    between atoms: _181  and  _182
REMARK   75  A    between atoms: _181  and  _184
REMARK   76  A    between atoms: _184  and  _185
REMARK   77  A    between atoms: _191  and  _193
REMARK   78  A    between atoms: _193  and  _194
REMARK   79  A    between atoms: _193  and  _196
REMARK   80  A    between atoms: _196  and  _197
REMARK   81  A    between atoms: _197  and  _198
REMARK   82  A    between atoms: _200  and  _202
REMARK   83  A    between atoms: _202  and  _203
REMARK   84  A    between atoms: _202  and  _205
REMARK   85  A    between atoms: _205  and  _206
REMARK   86  A    between atoms: _209  and  _211
REMARK   87  A    between atoms: _211  and  _212
REMARK   88  A    between atoms: _214  and  _216
REMARK   89  A    between atoms: _216  and  _217
REMARK   90  A    between atoms: _216  and  _219
REMARK   91  A    between atoms: _222  and  _224
REMARK   92  A    between atoms: _224  and  _225
REMARK   93  A    between atoms: _224  and  _227
REMARK   94  A    between atoms: _227  and  _228
REMARK   95  A    between atoms: _230  and  _232
REMARK   96  A    between atoms: _232  and  _233
REMARK   97  A    between atoms: _235  and  _237
REMARK   98  A    between atoms: _237  and  _238
REMARK   99  A    between atoms: _241  and  _243
REMARK  100  A    between atoms: _243  and  _244
REMARK  101  A    between atoms: _243  and  _246
REMARK  102  A    between atoms: _249  and  _251
REMARK  103  A    between atoms: _251  and  _252
REMARK  104  A    between atoms: _251  and  _254
REMARK  105  A    between atoms: _254  and  _255
REMARK  106  A    between atoms: _255  and  _256
REMARK  107  A    between atoms: _256  and  _257
REMARK  108  A    between atoms: _257  and  _258
REMARK  109  A    between atoms: _262  and  _264
REMARK  110  A    between atoms: _264  and  _265
REMARK  111  A    between atoms: _264  and  _267
REMARK  112  A    between atoms: _267  and  _268
REMARK  113  A    between atoms: _271  and  _273
REMARK  114  A    between atoms: _273  and  _274
REMARK  115  A    between atoms: _276  and  _278
REMARK  116  A    between atoms: _278  and  _279
REMARK  117  A    between atoms: _282  and  _284
REMARK  118  A    between atoms: _284  and  _285
REMARK  119  A    between atoms: _284  and  _287
REMARK  120  A    between atoms: _287  and  _288
REMARK  121  A    between atoms: _291  and  _293
REMARK  122  A    between atoms: _293  and  _294
REMARK  123  A    between atoms: _293  and  _296
REMARK  124  A    between atoms: _296  and  _297
REMARK  125  A    between atoms: _297  and  _298
REMARK  126  A    between atoms: _300  and  _302
REMARK  127  A    between atoms: _302  and  _303
REMARK  128  A    between atoms: _302  and  _305
REMARK  129  A    between atoms: _305  and  _306
REMARK  130  A    between atoms: _309  and  _311
REMARK  131  A    between atoms: _311  and  _312
REMARK  132  A    between atoms: _311  and  _314
REMARK  133  A    between atoms: _314  and  _315
REMARK  134  A    between atoms: _321  and  _323
REMARK  135  A    between atoms: _323  and  _324
REMARK  136  A    between atoms: _323  and  _326
REMARK  137  A    between atoms: _329  and  _331
REMARK  138  A    between atoms: _331  and  _332
REMARK  139  A    between atoms: _331  and  _334
REMARK  140  A    between atoms: _334  and  _335
REMARK  141  A    between atoms: _335  and  _336
REMARK  142  A    between atoms: _336  and  _337
REMARK  143  A    between atoms: _337  and  _338
REMARK  144  A    between atoms: _342  and  _344
REMARK  145  A    between atoms: _344  and  _345
REMARK  146  A    between atoms: _344  and  _347
REMARK  147  A    between atoms: _347  and  _348
REMARK  148  A    between atoms: _353  and  _355
REMARK  149  A    between atoms: _355  and  _356
REMARK  150  A    between atoms: _355  and  _358
REMARK  151  A    between atoms: _358  and  _359
REMARK  152  A    between atoms: _364  and  _366
REMARK  153  A    between atoms: _366  and  _367
REMARK  154  A    between atoms: _366  and  _369
REMARK  155  A    between atoms: _369  and  _370
REMARK  156  A    between atoms: _370  and  _371
REMARK  157  A    between atoms: _374  and  _376
REMARK  158  A    between atoms: _376  and  _377
REMARK  159  A    between atoms: _376  and  _379
REMARK  160  A    between atoms: _379  and  _380
REMARK  161  A    between atoms: _383  and  _385
REMARK  162  A    between atoms: _385  and  _386
REMARK  163  A    between atoms: _385  and  _388
REMARK  164  A    between atoms: _388  and  _389
REMARK  165  A    between atoms: _392  and  _394
REMARK  166  A    between atoms: _394  and  _395
REMARK  167  A    between atoms: _394  and  _397
REMARK  168  A    between atoms: _397  and  _398
REMARK  169  A    between atoms: _401  and  _403
REMARK  170  A    between atoms: _403  and  _404
REMARK  171  A    between atoms: _403  and  _406
REMARK  172  A    between atoms: _406  and  _407
REMARK  173  A    between atoms: _407  and  _408
REMARK  174  A    between atoms: _410  and  _412
REMARK  175  A    between atoms: _412  and  _413
REMARK  176  A    between atoms: _412  and  _415
REMARK  177  A    between atoms: _415  and  _416
REMARK  178  A    between atoms: _416  and  _417
REMARK  179  A    between atoms: _420  and  _422
REMARK  180  A    between atoms: _422  and  _423
REMARK  181  A    between atoms: _422  and  _425
REMARK  182  A    between atoms: _425  and  _426
REMARK  183  A    between atoms: _428  and  _430
REMARK  184  A    between atoms: _430  and  _431
REMARK  185  A    between atoms: _430  and  _433
REMARK  186  A    between atoms: _433  and  _434
REMARK  187  A    between atoms: _437  and  _439
REMARK  188  A    between atoms: _439  and  _440
REMARK  189  A    between atoms: _439  and  _442
REMARK  190  A    between atoms: _442  and  _443
REMARK  191  A    between atoms: _446  and  _448
REMARK  192  A    between atoms: _448  and  _449
REMARK  193  A    between atoms: _448  and  _451
REMARK  194  A    between atoms: _451  and  _452
REMARK  195  A    between atoms: _455  and  _457
REMARK  196  A    between atoms: _457  and  _458
REMARK  197  A    between atoms: _457  and  _460
REMARK  198  A    between atoms: _460  and  _461
REMARK  199  A    between atoms: _464  and  _466
REMARK  200  A    between atoms: _466  and  _467
REMARK  201  A    between atoms: _466  and  _469
REMARK  202  A    between atoms: _469  and  _470
REMARK  203  A    between atoms: _470  and  _471
REMARK  204  A    between atoms: _471  and  _472
REMARK  205  A    between atoms: _472  and  _473
REMARK  206  A    between atoms: _477  and  _479
REMARK  207  A    between atoms: _479  and  _480
REMARK  208  A    between atoms: _482  and  _484
REMARK  209  A    between atoms: _484  and  _485
REMARK  210  A    between atoms: _484  and  _487
REMARK  211  A    between atoms: _487  and  _488
REMARK  212  A    between atoms: _493  and  _494
REMARK  213  A    between atoms: _496  and  _498
REMARK  214  A    between atoms: _498  and  _499
REMARK  215  A    between atoms: _501  and  _503
REMARK  216  A    between atoms: _503  and  _504
REMARK  217  A    between atoms: _503  and  _506
REMARK  218  A    between atoms: _506  and  _507
REMARK                            x       y       z     vdW  Elec       q    Type
REMARK                         _______ _______ _______ _____ _____    ______ ____
ROOT
ATOM      1  CA  ASN A   3       3.196  26.479  23.051  0.00  0.00    +0.158 C 
ENDROOT
BRANCH   1   3
ATOM      2  C   LYS A   2       0.900  26.314  23.775  0.00  0.00    +0.241 C 
ATOM      3  N   ASN A   3       2.130  25.805  23.760  0.00  0.00    -0.297 N 
ATOM      4  H   ASN A   3       2.326  24.916  24.262  0.00  0.00    +0.150 HD
ATOM      5  O   LYS A   2       0.603  27.383  23.216  0.00  0.00    -0.273 OA
BRANCH   2   6
ATOM      6  CA  LYS A   2      -0.141  25.513  24.532  0.00  0.00    +0.149 C 
BRANCH   6   8
ATOM      7  C   VAL A   1      -0.127  23.450  23.215  0.00  0.00    +0.238 C 
ATOM      8  N   LYS A   2       0.052  24.071  24.380  0.00  0.00    -0.297 N 
ATOM      9  H   LYS A   2       0.338  23.512  25.209  0.00  0.00    +0.150 HD
ATOM     10  O   VAL A   1      -0.370  24.045  22.161  0.00  0.00    -0.274 OA
BRANCH   7  11
ATOM     11  CA  VAL A   1      -0.014  21.927  23.242  0.00  0.00    +0.145 C 
BRANCH  11  12
ATOM     12  CB  VAL A   1       1.463  21.504  23.329  0.00  0.00    +0.025 C 
ATOM     13  CG2 VAL A   1       1.579  19.987  23.527  0.00  0.00    +0.002 C 
ATOM     14  CG1 VAL A   1       2.221  21.962  22.080  0.00  0.00    +0.002 C 
ENDBRANCH  11  12
BRANCH  11  15
ATOM     15  N   VAL A   1      -0.670  21.317  22.093  0.00  0.00    -0.238 NA
ATOM     16  H   VAL A   1      -0.155  21.246  21.192  0.00  0.00    +0.142 HD
ENDBRANCH  11  15
ENDBRANCH   7  11
ENDBRANCH   6   8
BRANCH   6  17
ATOM     17  CB  LYS A   2      -0.098  25.887  26.009  0.00  0.00    +0.029 C 
BRANCH  17  18
ATOM     18  CG  LYS A   2      -0.261  27.368  26.302  0.00  0.00    +0.000 C 
BRANCH  18  19
ATOM     19  CD  LYS A   2      -0.028  27.641  27.786  0.00  0.00    -0.024 C 
BRANCH  19  20
ATOM     20  CE  LYS A   2      -0.323  29.091  28.154  0.00  0.00    -0.086 C 
BRANCH  20  21
ATOM     21  NZ  LYS A   2      -1.765  29.433  28.007  0.00  0.00    +0.380 N 
ATOM     22  HZ1 LYS A   2      -2.330  28.822  28.630  0.00  0.00    -0.089 HD
ATOM     23  HZ2 LYS A   2      -1.912  30.429  28.269  0.00  0.00    -0.089 HD
ATOM     24  HZ3 LYS A   2      -2.056  29.287  27.019  0.00  0.00    -0.089 HD
ENDBRANCH  20  21
ENDBRANCH  19  20
ENDBRANCH  18  19
ENDBRANCH  17  18
ENDBRANCH   6  17
ENDBRANCH   2   6
ENDBRANCH   1   3
BRANCH   1  25
ATOM     25  C   ASN A   3       4.349  25.540  22.726  0.00  0.00    +0.241 C 
ATOM     26  O   ASN A   3       4.354  24.381  23.137  0.00  0.00    -0.273 OA
ATOM     27  N   ASN A   4       5.322  26.051  21.986  0.00  0.00    -0.297 N 
ATOM     28  H   ASN A   4       5.275  27.052  21.708  0.00  0.00    +0.150 HD
BRANCH  27  29
ATOM     29  CA  ASN A   4       6.457  25.247  21.551  0.00  0.00    +0.158 C 
BRANCH  29  30
ATOM     30  C   ASN A   4       7.193  24.602  22.702  0.00  0.00    +0.241 C 
ATOM     31  N   GLU A   5       7.488  25.413  23.709  0.00  0.00    -0.298 N 
ATOM     32  H   GLU A   5       7.188  26.407  23.654  0.00  0.00    +0.150 HD
ATOM     33  O   ASN A   4       7.496  23.416  22.674  0.00  0.00    -0.273 OA
BRANCH  31  34
ATOM     34  CA  GLU A   5       8.212  24.969  24.882  0.00  0.00    +0.137 C 
BRANCH  34  35
ATOM     35  C   GLU A   5       7.515  23.783  25.527  0.00  0.00    +0.227 C 
ATOM     36  O   GLU A   5       8.149  22.795  25.888  0.00  0.00    -0.286 OA
ENDBRANCH  34  35
BRANCH  34  37
ATOM     37  CB  GLU A   5       8.312  26.126  25.873  0.00  0.00    +0.039 C 
BRANCH  37  38
ATOM     38  CG  GLU A   5       9.243  25.870  27.043  0.00  0.00    +0.116 C 
BRANCH  38  39
ATOM     39  CD  GLU A   5       9.328  27.063  27.977  0.00  0.00    +0.365 C 
ATOM     40  OE2 GLU A   5       8.297  27.394  28.605  0.00  0.00    -0.246 OA
ATOM     41  OE1 GLU A   5      10.420  27.668  28.074  0.00  0.00    -0.246 OA
ENDBRANCH  38  39
ENDBRANCH  37  38
ENDBRANCH  34  37
ENDBRANCH  31  34
ENDBRANCH  29  30
BRANCH  29  42
ATOM     42  CB  ASN A   4       7.438  26.126  20.797  0.00  0.00    +0.114 C 
BRANCH  42  43
ATOM     43  CG  ASN A   4       7.580  25.728  19.363  0.00  0.00    +0.222 C 
ATOM     44  OD1 ASN A   4       6.849  24.866  18.873  0.00  0.00    -0.275 OA
ATOM     45  ND2 ASN A   4       8.522  26.355  18.666  0.00  0.00    -0.329 N 
ATOM     46 HD21 ASN A   4       9.115  27.076  19.124  0.00  0.00    +0.145 HD
ATOM     47 HD22 ASN A   4       8.666  26.124  17.662  0.00  0.00    +0.145 HD
ENDBRANCH  42  43
ENDBRANCH  29  42
ENDBRANCH  27  29
ENDBRANCH   1  25
BRANCH   1  48
ATOM     48  CB  ASN A   3       3.679  27.699  23.844  0.00  0.00    +0.114 C 
BRANCH  48  49
ATOM     49  CG  ASN A   3       4.067  27.351  25.266  0.00  0.00    +0.222 C 
ATOM     50  ND2 ASN A   3       3.634  28.171  26.219  0.00  0.00    -0.329 N 
ATOM     51 HD21 ASN A   3       3.852  27.971  27.216  0.00  0.00    +0.145 HD
ATOM     52 HD22 ASN A   3       3.077  29.013  25.967  0.00  0.00    +0.145 HD
ATOM     53  OD1 ASN A   3       4.728  26.344  25.510  0.00  0.00    -0.275 OA
ENDBRANCH  48  49
ENDBRANCH   1  48
TORSDOF 23
REMARK  Name = ../refined-set-2016/4nwc/4nwc_pocket.pdb
REMARK  218 active torsions:
REMARK  status: ('A' for Active; 'I' for Inactive)
REMARK    1  A    between atoms: _1  and  _3
REMARK    2  A    between atoms: _3  and  _4
REMARK    3  A    between atoms: _3  and  _6
REMARK    4  A    between atoms: _6  and  _7
REMARK    5  A    between atoms: _10  and  _12
REMARK    6  A    between atoms: _12  and  _13
REMARK    7  A    between atoms: _12  and  _15
REMARK    8  A    between atoms: _15  and  _16
REMARK    9  A    between atoms: _19  and  _21
REMARK   10  A    between atoms: _21  and  _22
REMARK   11  A    between atoms: _21  and  _24
REMARK   12  A    between atoms: _24  and  _25
REMARK   13  A    between atoms: _25  and  _26
REMARK   14  A    between atoms: _29  and  _31
REMARK   15  A    between atoms: _31  and  _32
REMARK   16  A    between atoms: _31  and  _34
REMARK   17  A    between atoms: _34  and  _35
REMARK   18  A    between atoms: _35  and  _36
REMARK   19  A    between atoms: _40  and  _41
REMARK   20  A    between atoms: _46  and  _48
REMARK   21  A    between atoms: _48  and  _49
REMARK   22  A    between atoms: _48  and  _51
REMARK   23  A    between atoms: _51  and  _52
REMARK   24  A    between atoms: _58  and  _60
REMARK   25  A    between atoms: _60  and  _61
REMARK   26  A    between atoms: _60  and  _63
REMARK   27  A    between atoms: _63  and  _64
REMARK   28  A    between atoms: _64  and  _65
REMARK   29  A    between atoms: _65  and  _66
REMARK   30  A    between atoms: _66  and  _67
REMARK   31  A    between atoms: _71  and  _73
REMARK   32  A    between atoms: _73  and  _74
REMARK   33  A    between atoms: _73  and  _76
REMARK   34  A    between atoms: _76  and  _77
REMARK   35  A    between atoms: _82  and  _83
REMARK   36  A    between atoms: _85  and  _87
REMARK   37  A    between atoms: _87  and  _88
REMARK   38  A    between atoms: _90  and  _92
REMARK   39  A    between atoms: _92  and  _93
REMARK   40  A    between atoms: _96  and  _98
REMARK   41  A    between atoms: _98  and  _99
REMARK   42  A    between atoms: _98  and  _101
REMARK   43  A    between atoms: _101  and  _102
REMARK   44  A    between atoms: _102  and  _103
REMARK   45  A    between atoms: _105  and  _107
REMARK   46  A    between atoms: _107  and  _108
REMARK   47  A    between atoms: _107  and  _110
REMARK   48  A    between atoms: _113  and  _115
REMARK   49  A    between atoms: _115  and  _116
REMARK   50  A    between atoms: _120  and  _121
REMARK   51  A    between atoms: _126  and  _128
REMARK   52  A    between atoms: _128  and  _129
REMARK   53  A    between atoms: _128  and  _131
REMARK   54  A    between atoms: _131  and  _132
REMARK   55  A    between atoms: _135  and  _137
REMARK   56  A    between atoms: _137  and  _138
REMARK   57  A    between atoms: _137  and  _140
REMARK   58  A    between atoms: _140  and  _141
REMARK   59  A    between atoms: _144  and  _146
REMARK   60  A    between atoms: _146  and  _147
REMARK   61  A    between atoms: _146  and  _149
REMARK   62  A    between atoms: _149  and  _150
REMARK   63  A    between atoms: _153  and  _155
REMARK   64  A    between atoms: _155  and  _156
REMARK   65  A    between atoms: _155  and  _158
REMARK   66  A    between atoms: _158  and  _159
REMARK   67  A    between atoms: _162  and  _164
REMARK   68  A    between atoms: _164  and  _165
REMARK   69  A    between atoms: _164  and  _167
REMARK   70  A    between atoms: _167  and  _168
REMARK   71  A    between atoms: _168  and  _169
REMARK   72  A    between atoms: _169  and  _170
REMARK   73  A    between atoms: _179  and  _181
REMARK   74  A    between atoms: _181  and  _182
REMARK   75  A    between atoms: _181  and  _184
REMARK   76  A    between atoms: _184  and  _185
REMARK   77  A    between atoms: _191  and  _193
REMARK   78  A    between atoms: _193  and  _194
REMARK   79  A    between atoms: _193  and  _196
REMARK   80  A    between atoms: _196  and  _197
REMARK   81  A    between atoms: _197  and  _198
REMARK   82  A    between atoms: _200  and  _202
REMARK   83  A    between atoms: _202  and  _203
REMARK   84  A    between atoms: _202  and  _205
REMARK   85  A    between atoms: _205  and  _206
REMARK   86  A    between atoms: _209  and  _211
REMARK   87  A    between atoms: _211  and  _212
REMARK   88  A    between atoms: _214  and  _216
REMARK   89  A    between atoms: _216  and  _217
REMARK   90  A    between atoms: _216  and  _219
REMARK   91  A    between atoms: _222  and  _224
REMARK   92  A    between atoms: _224  and  _225
REMARK   93  A    between atoms: _224  and  _227
REMARK   94  A    between atoms: _227  and  _228
REMARK   95  A    between atoms: _230  and  _232
REMARK   96  A    between atoms: _232  and  _233
REMARK   97  A    between atoms: _235  and  _237
REMARK   98  A    between atoms: _237  and  _238
REMARK   99  A    between atoms: _241  and  _243
REMARK  100  A    between atoms: _243  and  _244
REMARK  101  A    between atoms: _243  and  _246
REMARK  102  A    between atoms: _249  and  _251
REMARK  103  A    between atoms: _251  and  _252
REMARK  104  A    between atoms: _251  and  _254
REMARK  105  A    between atoms: _254  and  _255
REMARK  106  A    between atoms: _255  and  _256
REMARK  107  A    between atoms: _256  and  _257
REMARK  108  A    between atoms: _257  and  _258
REMARK  109  A    between atoms: _262  and  _264
REMARK  110  A    between atoms: _264  and  _265
REMARK  111  A    between atoms: _264  and  _267
REMARK  112  A    between atoms: _267  and  _268
REMARK  113  A    between atoms: _271  and  _273
REMARK  114  A    between atoms: _273  and  _274
REMARK  115  A    between atoms: _276  and  _278
REMARK  116  A    between atoms: _278  and  _279
REMARK  117  A    between atoms: _282  and  _284
REMARK  118  A    between atoms: _284  and  _285
REMARK  119  A    between atoms: _284  and  _287
REMARK  120  A    between atoms: _287  and  _288
REMARK  121  A    between atoms: _291  and  _293
REMARK  122  A    between atoms: _293  and  _294
REMARK  123  A    between atoms: _293  and  _296
REMARK  124  A    between atoms: _296  and  _297
REMARK  125  A    between atoms: _297  and  _298
REMARK  126  A    between atoms: _300  and  _302
REMARK  127  A    between atoms: _302  and  _303
REMARK  128  A    between atoms: _302  and  _305
REMARK  129  A    between atoms: _305  and  _306
REMARK  130  A    between atoms: _309  and  _311
REMARK  131  A    between atoms: _311  and  _312
REMARK  132  A    between atoms: _311  and  _314
REMARK  133  A    between atoms: _314  and  _315
REMARK  134  A    between atoms: _321  and  _323
REMARK  135  A    between atoms: _323  and  _324
REMARK  136  A    between atoms: _323  and  _326
REMARK  137  A    between atoms: _329  and  _331
REMARK  138  A    between atoms: _331  and  _332
REMARK  139  A    between atoms: _331  and  _334
REMARK  140  A    between atoms: _334  and  _335
REMARK  141  A    between atoms: _335  and  _336
REMARK  142  A    between atoms: _336  and  _337
REMARK  143  A    between atoms: _337  and  _338
REMARK  144  A    between atoms: _342  and  _344
REMARK  145  A    between atoms: _344  and  _345
REMARK  146  A    between atoms: _344  and  _347
REMARK  147  A    between atoms: _347  and  _348
REMARK  148  A    between atoms: _353  and  _355
REMARK  149  A    between atoms: _355  and  _356
REMARK  150  A    between atoms: _355  and  _358
REMARK  151  A    between atoms: _358  and  _359
REMARK  152  A    between atoms: _364  and  _366
REMARK  153  A    between atoms: _366  and  _367
REMARK  154  A    between atoms: _366  and  _369
REMARK  155  A    between atoms: _369  and  _370
REMARK  156  A    between atoms: _370  and  _371
REMARK  157  A    between atoms: _374  and  _376
REMARK  158  A    between atoms: _376  and  _377
REMARK  159  A    between atoms: _376  and  _379
REMARK  160  A    between atoms: _379  and  _380
REMARK  161  A    between atoms: _383  and  _385
REMARK  162  A    between atoms: _385  and  _386
REMARK  163  A    between atoms: _385  and  _388
REMARK  164  A    between atoms: _388  and  _389
REMARK  165  A    between atoms: _392  and  _394
REMARK  166  A    between atoms: _394  and  _395
REMARK  167  A    between atoms: _394  and  _397
REMARK  168  A    between atoms: _397  and  _398
REMARK  169  A    between atoms: _401  and  _403
REMARK  170  A    between atoms: _403  and  _404
REMARK  171  A    between atoms: _403  and  _406
REMARK  172  A    between atoms: _406  and  _407
REMARK  173  A    between atoms: _407  and  _408
REMARK  174  A    between atoms: _410  and  _412
REMARK  175  A    between atoms: _412  and  _413
REMARK  176  A    between atoms: _412  and  _415
REMARK  177  A    between atoms: _415  and  _416
REMARK  178  A    between atoms: _416  and  _417
REMARK  179  A    between atoms: _420  and  _422
REMARK  180  A    between atoms: _422  and  _423
REMARK  181  A    between atoms: _422  and  _425
REMARK  182  A    between atoms: _425  and  _426
REMARK  183  A    between atoms: _428  and  _430
REMARK  184  A    between atoms: _430  and  _431
REMARK  185  A    between atoms: _430  and  _433
REMARK  186  A    between atoms: _433  and  _434
REMARK  187  A    between atoms: _437  and  _439
REMARK  188  A    between atoms: _439  and  _440
REMARK  189  A    between atoms: _439  and  _442
REMARK  190  A    between atoms: _442  and  _443
REMARK  191  A    between atoms: _446  and  _448
REMARK  192  A    between atoms: _448  and  _449
REMARK  193  A    between atoms: _448  and  _451
REMARK  194  A    between atoms: _451  and  _452
REMARK  195  A    between atoms: _455  and  _457
REMARK  196  A    between atoms: _457  and  _458
REMARK  197  A    between atoms: _457  and  _460
REMARK  198  A    between atoms: _460  and  _461
REMARK  199  A    between atoms: _464  and  _466
REMARK  200  A    between atoms: _466  and  _467
REMARK  201  A    between atoms: _466  and  _469
REMARK  202  A    between atoms: _469  and  _470
REMARK  203  A    between atoms: _470  and  _471
REMARK  204  A    between atoms: _471  and  _472
REMARK  205  A    between atoms: _472  and  _473
REMARK  206  A    between atoms: _477  and  _479
REMARK  207  A    between atoms: _479  and  _480
REMARK  208  A    between atoms: _482  and  _484
REMARK  209  A    between atoms: _484  and  _485
REMARK  210  A    between atoms: _484  and  _487
REMARK  211  A    between atoms: _487  and  _488
REMARK  212  A    between atoms: _493  and  _494
REMARK  213  A    between atoms: _496  and  _498
REMARK  214  A    between atoms: _498  and  _499
REMARK  215  A    between atoms: _501  and  _503
REMARK  216  A    between atoms: _503  and  _504
REMARK  217  A    between atoms: _503  and  _506
REMARK  218  A    between atoms: _506  and  _507
REMARK                            x       y       z     vdW  Elec       q    Type
REMARK                         _______ _______ _______ _____ _____    ______ ____
ROOT
ATOM      1  CA  ILE A   1       9.316  20.221  23.395  0.00  0.00    +0.133 C 
ENDROOT
BRANCH   1   2
ATOM      2  N   ILE A   1       7.980  20.792  23.232  0.00  0.00    -0.239 NA
ATOM      3  H   ILE A   1       7.867  21.825  23.182  0.00  0.00    +0.142 HD
ENDBRANCH   1   2
BRANCH   1   4
ATOM      4  C   ILE A   1       9.417  19.423  24.686  0.00  0.00    +0.224 C 
ATOM      5  O   ILE A   1       9.918  18.295  24.685  0.00  0.00    -0.287 OA
ENDBRANCH   1   4
BRANCH   1   6
ATOM      6  CB  ILE A   1      10.409  21.306  23.356  0.00  0.00    +0.023 C 
ATOM      7  CG2 ILE A   1      11.797  20.698  23.588  0.00  0.00    +0.002 C 
BRANCH   6   8
ATOM      8  CG1 ILE A   1      10.398  22.017  22.011  0.00  0.00    +0.002 C 
ATOM      9  CD1 ILE A   1      10.984  23.409  22.078  0.00  0.00    +0.000 C 
ENDBRANCH   6   8
ENDBRANCH   1   6
TORSDOF 4
REMARK  Name = ../refined-set-2016/4nwc/4nwc_pocket.pdb
REMARK  218 active torsions:
REMARK  status: ('A' for Active; 'I' for Inactive)
REMARK    1  A    between atoms: _1  and  _3
REMARK    2  A    between atoms: _3  and  _4
REMARK    3  A    between atoms: _3  and  _6
REMARK    4  A    between atoms: _6  and  _7
REMARK    5  A    between atoms: _10  and  _12
REMARK    6  A    between atoms: _12  and  _13
REMARK    7  A    between atoms: _12  and  _15
REMARK    8  A    between atoms: _15  and  _16
REMARK    9  A    between atoms: _19  and  _21
REMARK   10  A    between atoms: _21  and  _22
REMARK   11  A    between atoms: _21  and  _24
REMARK   12  A    between atoms: _24  and  _25
REMARK   13  A    between atoms: _25  and  _26
REMARK   14  A    between atoms: _29  and  _31
REMARK   15  A    between atoms: _31  and  _32
REMARK   16  A    between atoms: _31  and  _34
REMARK   17  A    between atoms: _34  and  _35
REMARK   18  A    between atoms: _35  and  _36
REMARK   19  A    between atoms: _40  and  _41
REMARK   20  A    between atoms: _46  and  _48
REMARK   21  A    between atoms: _48  and  _49
REMARK   22  A    between atoms: _48  and  _51
REMARK   23  A    between atoms: _51  and  _52
REMARK   24  A    between atoms: _58  and  _60
REMARK   25  A    between atoms: _60  and  _61
REMARK   26  A    between atoms: _60  and  _63
REMARK   27  A    between atoms: _63  and  _64
REMARK   28  A    between atoms: _64  and  _65
REMARK   29  A    between atoms: _65  and  _66
REMARK   30  A    between atoms: _66  and  _67
REMARK   31  A    between atoms: _71  and  _73
REMARK   32  A    between atoms: _73  and  _74
REMARK   33  A    between atoms: _73  and  _76
REMARK   34  A    between atoms: _76  and  _77
REMARK   35  A    between atoms: _82  and  _83
REMARK   36  A    between atoms: _85  and  _87
REMARK   37  A    between atoms: _87  and  _88
REMARK   38  A    between atoms: _90  and  _92
REMARK   39  A    between atoms: _92  and  _93
REMARK   40  A    between atoms: _96  and  _98
REMARK   41  A    between atoms: _98  and  _99
REMARK   42  A    between atoms: _98  and  _101
REMARK   43  A    between atoms: _101  and  _102
REMARK   44  A    between atoms: _102  and  _103
REMARK   45  A    between atoms: _105  and  _107
REMARK   46  A    between atoms: _107  and  _108
REMARK   47  A    between atoms: _107  and  _110
REMARK   48  A    between atoms: _113  and  _115
REMARK   49  A    between atoms: _115  and  _116
REMARK   50  A    between atoms: _120  and  _121
REMARK   51  A    between atoms: _126  and  _128
REMARK   52  A    between atoms: _128  and  _129
REMARK   53  A    between atoms: _128  and  _131
REMARK   54  A    between atoms: _131  and  _132
REMARK   55  A    between atoms: _135  and  _137
REMARK   56  A    between atoms: _137  and  _138
REMARK   57  A    between atoms: _137  and  _140
REMARK   58  A    between atoms: _140  and  _141
REMARK   59  A    between atoms: _144  and  _146
REMARK   60  A    between atoms: _146  and  _147
REMARK   61  A    between atoms: _146  and  _149
REMARK   62  A    between atoms: _149  and  _150
REMARK   63  A    between atoms: _153  and  _155
REMARK   64  A    between atoms: _155  and  _156
REMARK   65  A    between atoms: _155  and  _158
REMARK   66  A    between atoms: _158  and  _159
REMARK   67  A    between atoms: _162  and  _164
REMARK   68  A    between atoms: _164  and  _165
REMARK   69  A    between atoms: _164  and  _167
REMARK   70  A    between atoms: _167  and  _168
REMARK   71  A    between atoms: _168  and  _169
REMARK   72  A    between atoms: _169  and  _170
REMARK   73  A    between atoms: _179  and  _181
REMARK   74  A    between atoms: _181  and  _182
REMARK   75  A    between atoms: _181  and  _184
REMARK   76  A    between atoms: _184  and  _185
REMARK   77  A    between atoms: _191  and  _193
REMARK   78  A    between atoms: _193  and  _194
REMARK   79  A    between atoms: _193  and  _196
REMARK   80  A    between atoms: _196  and  _197
REMARK   81  A    between atoms: _197  and  _198
REMARK   82  A    between atoms: _200  and  _202
REMARK   83  A    between atoms: _202  and  _203
REMARK   84  A    between atoms: _202  and  _205
REMARK   85  A    between atoms: _205  and  _206
REMARK   86  A    between atoms: _209  and  _211
REMARK   87  A    between atoms: _211  and  _212
REMARK   88  A    between atoms: _214  and  _216
REMARK   89  A    between atoms: _216  and  _217
REMARK   90  A    between atoms: _216  and  _219
REMARK   91  A    between atoms: _222  and  _224
REMARK   92  A    between atoms: _224  and  _225
REMARK   93  A    between atoms: _224  and  _227
REMARK   94  A    between atoms: _227  and  _228
REMARK   95  A    between atoms: _230  and  _232
REMARK   96  A    between atoms: _232  and  _233
REMARK   97  A    between atoms: _235  and  _237
REMARK   98  A    between atoms: _237  and  _238
REMARK   99  A    between atoms: _241  and  _243
REMARK  100  A    between atoms: _243  and  _244
REMARK  101  A    between atoms: _243  and  _246
REMARK  102  A    between atoms: _249  and  _251
REMARK  103  A    between atoms: _251  and  _252
REMARK  104  A    between atoms: _251  and  _254
REMARK  105  A    between atoms: _254  and  _255
REMARK  106  A    between atoms: _255  and  _256
REMARK  107  A    between atoms: _256  and  _257
REMARK  108  A    between atoms: _257  and  _258
REMARK  109  A    between atoms: _262  and  _264
REMARK  110  A    between atoms: _264  and  _265
REMARK  111  A    between atoms: _264  and  _267
REMARK  112  A    between atoms: _267  and  _268
REMARK  113  A    between atoms: _271  and  _273
REMARK  114  A    between atoms: _273  and  _274
REMARK  115  A    between atoms: _276  and  _278
REMARK  116  A    between atoms: _278  and  _279
REMARK  117  A    between atoms: _282  and  _284
REMARK  118  A    between atoms: _284  and  _285
REMARK  119  A    between atoms: _284  and  _287
REMARK  120  A    between atoms: _287  and  _288
REMARK  121  A    between atoms: _291  and  _293
REMARK  122  A    between atoms: _293  and  _294
REMARK  123  A    between atoms: _293  and  _296
REMARK  124  A    between atoms: _296  and  _297
REMARK  125  A    between atoms: _297  and  _298
REMARK  126  A    between atoms: _300  and  _302
REMARK  127  A    between atoms: _302  and  _303
REMARK  128  A    between atoms: _302  and  _305
REMARK  129  A    between atoms: _305  and  _306
REMARK  130  A    between atoms: _309  and  _311
REMARK  131  A    between atoms: _311  and  _312
REMARK  132  A    between atoms: _311  and  _314
REMARK  133  A    between atoms: _314  and  _315
REMARK  134  A    between atoms: _321  and  _323
REMARK  135  A    between atoms: _323  and  _324
REMARK  136  A    between atoms: _323  and  _326
REMARK  137  A    between atoms: _329  and  _331
REMARK  138  A    between atoms: _331  and  _332
REMARK  139  A    between atoms: _331  and  _334
REMARK  140  A    between atoms: _334  and  _335
REMARK  141  A    between atoms: _335  and  _336
REMARK  142  A    between atoms: _336  and  _337
REMARK  143  A    between atoms: _337  and  _338
REMARK  144  A    between atoms: _342  and  _344
REMARK  145  A    between atoms: _344  and  _345
REMARK  146  A    between atoms: _344  and  _347
REMARK  147  A    between atoms: _347  and  _348
REMARK  148  A    between atoms: _353  and  _355
REMARK  149  A    between atoms: _355  and  _356
REMARK  150  A    between atoms: _355  and  _358
REMARK  151  A    between atoms: _358  and  _359
REMARK  152  A    between atoms: _364  and  _366
REMARK  153  A    between atoms: _366  and  _367
REMARK  154  A    between atoms: _366  and  _369
REMARK  155  A    between atoms: _369  and  _370
REMARK  156  A    between atoms: _370  and  _371
REMARK  157  A    between atoms: _374  and  _376
REMARK  158  A    between atoms: _376  and  _377
REMARK  159  A    between atoms: _376  and  _379
REMARK  160  A    between atoms: _379  and  _380
REMARK  161  A    between atoms: _383  and  _385
REMARK  162  A    between atoms: _385  and  _386
REMARK  163  A    between atoms: _385  and  _388
REMARK  164  A    between atoms: _388  and  _389
REMARK  165  A    between atoms: _392  and  _394
REMARK  166  A    between atoms: _394  and  _395
REMARK  167  A    between atoms: _394  and  _397
REMARK  168  A    between atoms: _397  and  _398
REMARK  169  A    between atoms: _401  and  _403
REMARK  170  A    between atoms: _403  and  _404
REMARK  171  A    between atoms: _403  and  _406
REMARK  172  A    between atoms: _406  and  _407
REMARK  173  A    between atoms: _407  and  _408
REMARK  174  A    between atoms: _410  and  _412
REMARK  175  A    between atoms: _412  and  _413
REMARK  176  A    between atoms: _412  and  _415
REMARK  177  A    between atoms: _415  and  _416
REMARK  178  A    between atoms: _416  and  _417
REMARK  179  A    between atoms: _420  and  _422
REMARK  180  A    between atoms: _422  and  _423
REMARK  181  A    between atoms: _422  and  _425
REMARK  182  A    between atoms: _425  and  _426
REMARK  183  A    between atoms: _428  and  _430
REMARK  184  A    between atoms: _430  and  _431
REMARK  185  A    between atoms: _430  and  _433
REMARK  186  A    between atoms: _433  and  _434
REMARK  187  A    between atoms: _437  and  _439
REMARK  188  A    between atoms: _439  and  _440
REMARK  189  A    between atoms: _439  and  _442
REMARK  190  A    between atoms: _442  and  _443
REMARK  191  A    between atoms: _446  and  _448
REMARK  192  A    between atoms: _448  and  _449
REMARK  193  A    between atoms: _448  and  _451
REMARK  194  A    between atoms: _451  and  _452
REMARK  195  A    between atoms: _455  and  _457
REMARK  196  A    between atoms: _457  and  _458
REMARK  197  A    between atoms: _457  and  _460
REMARK  198  A    between atoms: _460  and  _461
REMARK  199  A    between atoms: _464  and  _466
REMARK  200  A    between atoms: _466  and  _467
REMARK  201  A    between atoms: _466  and  _469
REMARK  202  A    between atoms: _469  and  _470
REMARK  203  A    between atoms: _470  and  _471
REMARK  204  A    between atoms: _471  and  _472
REMARK  205  A    between atoms: _472  and  _473
REMARK  206  A    between atoms: _477  and  _479
REMARK  207  A    between atoms: _479  and  _480
REMARK  208  A    between atoms: _482  and  _484
REMARK  209  A    between atoms: _484  and  _485
REMARK  210  A    between atoms: _484  and  _487
REMARK  211  A    between atoms: _487  and  _488
REMARK  212  A    between atoms: _493  and  _494
REMARK  213  A    between atoms: _496  and  _498
REMARK  214  A    between atoms: _498  and  _499
REMARK  215  A    between atoms: _501  and  _503
REMARK  216  A    between atoms: _503  and  _504
REMARK  217  A    between atoms: _503  and  _506
REMARK  218  A    between atoms: _506  and  _507
REMARK                            x       y       z     vdW  Elec       q    Type
REMARK                         _______ _______ _______ _____ _____    ______ ____
ROOT
ATOM      1  C   GLU A   4      10.060  23.970  11.854  0.00  0.00    +0.241 C 
ATOM      2  O   GLU A   4      10.693  23.946  12.900  0.00  0.00    -0.273 OA
ATOM      3  N   SER A   5      10.616  23.760  10.666  0.00  0.00    -0.295 N 
ATOM      4  H   SER A   5      10.074  23.994   9.810  0.00  0.00    +0.150 HD
ENDROOT
BRANCH   3   5
ATOM      5  CA  SER A   5      11.968  23.210  10.519  0.00  0.00    +0.178 C 
BRANCH   5   6
ATOM      6  C   SER A   5      13.143  24.021  11.079  0.00  0.00    +0.243 C 
ATOM      7  O   SER A   5      14.105  23.435  11.574  0.00  0.00    -0.273 OA
ATOM      8  N   THR A   6      13.111  25.348  10.991  0.00  0.00    -0.295 N 
ATOM      9  H   THR A   6      12.288  25.833  10.580  0.00  0.00    +0.150 HD
BRANCH   8  10
ATOM     10  CA  THR A   6      14.262  26.113  11.486  0.00  0.00    +0.176 C 
BRANCH  10  11
ATOM     11  C   THR A   6      14.304  26.100  13.016  0.00  0.00    +0.243 C 
ATOM     12  N   THR A   7      13.142  25.975  13.633  0.00  0.00    -0.295 N 
ATOM     13  H   THR A   7      12.259  25.979  13.084  0.00  0.00    +0.150 HD
ATOM     14  O   THR A   6      15.369  26.177  13.633  0.00  0.00    -0.273 OA
BRANCH  12  15
ATOM     15  CA  THR A   7      13.098  25.832  15.079  0.00  0.00    +0.176 C 
BRANCH  15  16
ATOM     16  C   THR A   7      13.575  24.435  15.491  0.00  0.00    +0.243 C 
ATOM     17  O   THR A   7      14.280  24.288  16.486  0.00  0.00    -0.273 OA
ATOM     18  N   ILE A   8      13.214  23.415  14.715  0.00  0.00    -0.298 N 
ATOM     19  H   ILE A   8      12.566  23.578  13.918  0.00  0.00    +0.150 HD
BRANCH  18  20
ATOM     20  CA  ILE A   8      13.722  22.064  14.975  0.00  0.00    +0.137 C 
BRANCH  20  21
ATOM     21  CB  ILE A   8      13.171  21.051  13.961  0.00  0.00    +0.026 C 
ATOM     22  CG2 ILE A   8      13.874  19.703  14.107  0.00  0.00    +0.002 C 
BRANCH  21  23
ATOM     23  CG1 ILE A   8      11.675  20.863  14.159  0.00  0.00    +0.002 C 
ATOM     24  CD1 ILE A   8      11.059  19.865  13.186  0.00  0.00    +0.000 C 
ENDBRANCH  21  23
ENDBRANCH  20  21
BRANCH  20  25
ATOM     25  C   ILE A   8      15.245  22.033  14.902  0.00  0.00    +0.227 C 
ATOM     26  O   ILE A   8      15.913  21.388  15.721  0.00  0.00    -0.286 OA
ENDBRANCH  20  25
ENDBRANCH  18  20
ENDBRANCH  15  16
BRANCH  15  27
ATOM     27  CB  THR A   7      11.699  26.116  15.616  0.00  0.00    +0.137 C 
ATOM     28  CG2 THR A   7      11.710  26.196  17.140  0.00  0.00    +0.034 C 
BRANCH  27  29
ATOM     29  OG1 THR A   7      11.262  27.369  15.088  0.00  0.00    -0.382 OA
ATOM     30  HG1 THR A   7      11.243  27.321  14.099  0.00  0.00    +0.210 HD
ENDBRANCH  27  29
ENDBRANCH  15  27
ENDBRANCH  12  15
ENDBRANCH  10  11
BRANCH  10  31
ATOM     31  CB  THR A   6      14.322  27.551  10.930  0.00  0.00    +0.137 C 
ATOM     32  CG2 THR A   6      14.548  27.533   9.419  0.00  0.00    +0.034 C 
BRANCH  31  33
ATOM     33  OG1 THR A   6      13.103  28.239  11.224  0.00  0.00    -0.382 OA
ATOM     34  HG1 THR A   6      12.973  28.273  12.205  0.00  0.00    +0.210 HD
ENDBRANCH  31  33
ENDBRANCH  10  31
ENDBRANCH   8  10
ENDBRANCH   5   6
BRANCH   5  35
ATOM     35  CB  SER A   5      12.234  22.867   9.053  0.00  0.00    +0.166 C 
BRANCH  35  36
ATOM     36  OG  SER A   5      12.129  24.019   8.241  0.00  0.00    -0.380 OA
ATOM     37  H   SER A   5      12.792  24.692   8.537  0.00  0.00    +0.211 HD
ENDBRANCH  35  36
ENDBRANCH   5  35
ENDBRANCH   3   5
BRANCH   1  38
ATOM     38  CA  GLU A   4       8.556  24.224  11.853  0.00  0.00    +0.149 C 
BRANCH  38  40
ATOM     39  C   MET A   3       7.584  22.353  13.024  0.00  0.00    +0.241 C 
ATOM     40  N   GLU A   4       7.888  23.645  13.004  0.00  0.00    -0.297 N 
ATOM     41  H   GLU A   4       7.646  24.246  13.818  0.00  0.00    +0.150 HD
ATOM     42  O   MET A   3       7.936  21.574  12.146  0.00  0.00    -0.273 OA
BRANCH  39  43
ATOM     43  CA  MET A   3       6.656  21.917  14.130  0.00  0.00    +0.149 C 
BRANCH  43  46
ATOM     44  C   LEU A   2       5.142  20.105  14.540  0.00  0.00    +0.241 C 
ATOM     45  O   LEU A   2       4.386  20.837  15.175  0.00  0.00    -0.273 OA
ATOM     46  N   MET A   3       6.254  20.535  13.961  0.00  0.00    -0.297 N 
ATOM     47  H   MET A   3       6.833  19.886  13.390  0.00  0.00    +0.150 HD
BRANCH  44  48
ATOM     48  CA  LEU A   2       4.836  18.632  14.380  0.00  0.00    +0.149 C 
BRANCH  48  51
ATOM     49  C   LEU A   1       5.965  17.731  16.356  0.00  0.00    +0.238 C 
ATOM     50  O   LEU A   1       7.084  17.765  15.830  0.00  0.00    -0.274 OA
ATOM     51  N   LEU A   2       4.841  18.041  15.714  0.00  0.00    -0.297 N 
ATOM     52  H   LEU A   2       3.931  17.855  16.181  0.00  0.00    +0.150 HD
BRANCH  49  53
ATOM     53  CA  LEU A   1       5.807  17.302  17.802  0.00  0.00    +0.145 C 
BRANCH  53  54
ATOM     54  N   LEU A   1       6.365  15.967  18.026  0.00  0.00    -0.238 NA
ATOM     55  H   LEU A   1       7.394  15.853  18.119  0.00  0.00    +0.142 HD
ENDBRANCH  53  54
BRANCH  53  56
ATOM     56  CB  LEU A   1       6.495  18.317  18.719  0.00  0.00    +0.026 C 
BRANCH  56  57
ATOM     57  CG  LEU A   1       6.057  19.784  18.678  0.00  0.00    +0.002 C 
ATOM     58  CD2 LEU A   1       6.896  20.587  19.649  0.00  0.00    +0.000 C 
ATOM     59  CD1 LEU A   1       4.594  19.928  19.017  0.00  0.00    +0.000 C 
ENDBRANCH  56  57
ENDBRANCH  53  56
ENDBRANCH  49  53
ENDBRANCH  48  51
BRANCH  48  60
ATOM     60  CB  LEU A   2       3.478  18.437  13.714  0.00  0.00    +0.029 C 
BRANCH  60  61
ATOM     61  CG  LEU A   2       3.222  16.965  13.433  0.00  0.00    +0.002 C 
ATOM     62  CD2 LEU A   2       1.729  16.672  13.323  0.00  0.00    +0.000 C 
ATOM     63  CD1 LEU A   2       3.947  16.614  12.162  0.00  0.00    +0.000 C 
ENDBRANCH  60  61
ENDBRANCH  48  60
ENDBRANCH  44  48
ENDBRANCH  43  46
BRANCH  43  64
ATOM     64  CB  MET A   3       7.308  22.121  15.488  0.00  0.00    +0.041 C 
BRANCH  64  65
ATOM     65  CG  MET A   3       8.501  21.240  15.701  0.00  0.00    +0.060 C 
BRANCH  65  66
ATOM     66  SD  MET A   3       9.352  21.657  17.219  0.00  0.00    -0.139 S 
ATOM     67  CE  MET A   3      10.360  23.018  16.670  0.00  0.00    +0.069 C 
ENDBRANCH  65  66
ENDBRANCH  64  65
ENDBRANCH  43  64
ENDBRANCH  39  43
ENDBRANCH  38  40
BRANCH  38  68
ATOM     68  CB  GLU A   4       8.161  25.701  11.731  0.00  0.00    +0.041 C 
BRANCH  68  69
ATOM     69  CG  GLU A   4       6.659  25.798  11.398  0.00  0.00    +0.116 C 
BRANCH  69  70
ATOM     70  CD  GLU A   4       6.055  27.170  11.616  0.00  0.00    +0.365 C 
ATOM     71  OE2 GLU A   4       6.636  27.977  12.380  0.00  0.00    -0.246 OA
ATOM     72  OE1 GLU A   4       4.983  27.429  11.015  0.00  0.00    -0.246 OA
ENDBRANCH  69  70
ENDBRANCH  68  69
ENDBRANCH  38  68
ENDBRANCH   1  38
TORSDOF 34
REMARK  Name = ../refined-set-2016/4nwc/4nwc_pocket.pdb
REMARK  218 active torsions:
REMARK  status: ('A' for Active; 'I' for Inactive)
REMARK    1  A    between atoms: _1  and  _3
REMARK    2  A    between atoms: _3  and  _4
REMARK    3  A    between atoms: _3  and  _6
REMARK    4  A    between atoms: _6  and  _7
REMARK    5  A    between atoms: _10  and  _12
REMARK    6  A    between atoms: _12  and  _13
REMARK    7  A    between atoms: _12  and  _15
REMARK    8  A    between atoms: _15  and  _16
REMARK    9  A    between atoms: _19  and  _21
REMARK   10  A    between atoms: _21  and  _22
REMARK   11  A    between atoms: _21  and  _24
REMARK   12  A    between atoms: _24  and  _25
REMARK   13  A    between atoms: _25  and  _26
REMARK   14  A    between atoms: _29  and  _31
REMARK   15  A    between atoms: _31  and  _32
REMARK   16  A    between atoms: _31  and  _34
REMARK   17  A    between atoms: _34  and  _35
REMARK   18  A    between atoms: _35  and  _36
REMARK   19  A    between atoms: _40  and  _41
REMARK   20  A    between atoms: _46  and  _48
REMARK   21  A    between atoms: _48  and  _49
REMARK   22  A    between atoms: _48  and  _51
REMARK   23  A    between atoms: _51  and  _52
REMARK   24  A    between atoms: _58  and  _60
REMARK   25  A    between atoms: _60  and  _61
REMARK   26  A    between atoms: _60  and  _63
REMARK   27  A    between atoms: _63  and  _64
REMARK   28  A    between atoms: _64  and  _65
REMARK   29  A    between atoms: _65  and  _66
REMARK   30  A    between atoms: _66  and  _67
REMARK   31  A    between atoms: _71  and  _73
REMARK   32  A    between atoms: _73  and  _74
REMARK   33  A    between atoms: _73  and  _76
REMARK   34  A    between atoms: _76  and  _77
REMARK   35  A    between atoms: _82  and  _83
REMARK   36  A    between atoms: _85  and  _87
REMARK   37  A    between atoms: _87  and  _88
REMARK   38  A    between atoms: _90  and  _92
REMARK   39  A    between atoms: _92  and  _93
REMARK   40  A    between atoms: _96  and  _98
REMARK   41  A    between atoms: _98  and  _99
REMARK   42  A    between atoms: _98  and  _101
REMARK   43  A    between atoms: _101  and  _102
REMARK   44  A    between atoms: _102  and  _103
REMARK   45  A    between atoms: _105  and  _107
REMARK   46  A    between atoms: _107  and  _108
REMARK   47  A    between atoms: _107  and  _110
REMARK   48  A    between atoms: _113  and  _115
REMARK   49  A    between atoms: _115  and  _116
REMARK   50  A    between atoms: _120  and  _121
REMARK   51  A    between atoms: _126  and  _128
REMARK   52  A    between atoms: _128  and  _129
REMARK   53  A    between atoms: _128  and  _131
REMARK   54  A    between atoms: _131  and  _132
REMARK   55  A    between atoms: _135  and  _137
REMARK   56  A    between atoms: _137  and  _138
REMARK   57  A    between atoms: _137  and  _140
REMARK   58  A    between atoms: _140  and  _141
REMARK   59  A    between atoms: _144  and  _146
REMARK   60  A    between atoms: _146  and  _147
REMARK   61  A    between atoms: _146  and  _149
REMARK   62  A    between atoms: _149  and  _150
REMARK   63  A    between atoms: _153  and  _155
REMARK   64  A    between atoms: _155  and  _156
REMARK   65  A    between atoms: _155  and  _158
REMARK   66  A    between atoms: _158  and  _159
REMARK   67  A    between atoms: _162  and  _164
REMARK   68  A    between atoms: _164  and  _165
REMARK   69  A    between atoms: _164  and  _167
REMARK   70  A    between atoms: _167  and  _168
REMARK   71  A    between atoms: _168  and  _169
REMARK   72  A    between atoms: _169  and  _170
REMARK   73  A    between atoms: _179  and  _181
REMARK   74  A    between atoms: _181  and  _182
REMARK   75  A    between atoms: _181  and  _184
REMARK   76  A    between atoms: _184  and  _185
REMARK   77  A    between atoms: _191  and  _193
REMARK   78  A    between atoms: _193  and  _194
REMARK   79  A    between atoms: _193  and  _196
REMARK   80  A    between atoms: _196  and  _197
REMARK   81  A    between atoms: _197  and  _198
REMARK   82  A    between atoms: _200  and  _202
REMARK   83  A    between atoms: _202  and  _203
REMARK   84  A    between atoms: _202  and  _205
REMARK   85  A    between atoms: _205  and  _206
REMARK   86  A    between atoms: _209  and  _211
REMARK   87  A    between atoms: _211  and  _212
REMARK   88  A    between atoms: _214  and  _216
REMARK   89  A    between atoms: _216  and  _217
REMARK   90  A    between atoms: _216  and  _219
REMARK   91  A    between atoms: _222  and  _224
REMARK   92  A    between atoms: _224  and  _225
REMARK   93  A    between atoms: _224  and  _227
REMARK   94  A    between atoms: _227  and  _228
REMARK   95  A    between atoms: _230  and  _232
REMARK   96  A    between atoms: _232  and  _233
REMARK   97  A    between atoms: _235  and  _237
REMARK   98  A    between atoms: _237  and  _238
REMARK   99  A    between atoms: _241  and  _243
REMARK  100  A    between atoms: _243  and  _244
REMARK  101  A    between atoms: _243  and  _246
REMARK  102  A    between atoms: _249  and  _251
REMARK  103  A    between atoms: _251  and  _252
REMARK  104  A    between atoms: _251  and  _254
REMARK  105  A    between atoms: _254  and  _255
REMARK  106  A    between atoms: _255  and  _256
REMARK  107  A    between atoms: _256  and  _257
REMARK  108  A    between atoms: _257  and  _258
REMARK  109  A    between atoms: _262  and  _264
REMARK  110  A    between atoms: _264  and  _265
REMARK  111  A    between atoms: _264  and  _267
REMARK  112  A    between atoms: _267  and  _268
REMARK  113  A    between atoms: _271  and  _273
REMARK  114  A    between atoms: _273  and  _274
REMARK  115  A    between atoms: _276  and  _278
REMARK  116  A    between atoms: _278  and  _279
REMARK  117  A    between atoms: _282  and  _284
REMARK  118  A    between atoms: _284  and  _285
REMARK  119  A    between atoms: _284  and  _287
REMARK  120  A    between atoms: _287  and  _288
REMARK  121  A    between atoms: _291  and  _293
REMARK  122  A    between atoms: _293  and  _294
REMARK  123  A    between atoms: _293  and  _296
REMARK  124  A    between atoms: _296  and  _297
REMARK  125  A    between atoms: _297  and  _298
REMARK  126  A    between atoms: _300  and  _302
REMARK  127  A    between atoms: _302  and  _303
REMARK  128  A    between atoms: _302  and  _305
REMARK  129  A    between atoms: _305  and  _306
REMARK  130  A    between atoms: _309  and  _311
REMARK  131  A    between atoms: _311  and  _312
REMARK  132  A    between atoms: _311  and  _314
REMARK  133  A    between atoms: _314  and  _315
REMARK  134  A    between atoms: _321  and  _323
REMARK  135  A    between atoms: _323  and  _324
REMARK  136  A    between atoms: _323  and  _326
REMARK  137  A    between atoms: _329  and  _331
REMARK  138  A    between atoms: _331  and  _332
REMARK  139  A    between atoms: _331  and  _334
REMARK  140  A    between atoms: _334  and  _335
REMARK  141  A    between atoms: _335  and  _336
REMARK  142  A    between atoms: _336  and  _337
REMARK  143  A    between atoms: _337  and  _338
REMARK  144  A    between atoms: _342  and  _344
REMARK  145  A    between atoms: _344  and  _345
REMARK  146  A    between atoms: _344  and  _347
REMARK  147  A    between atoms: _347  and  _348
REMARK  148  A    between atoms: _353  and  _355
REMARK  149  A    between atoms: _355  and  _356
REMARK  150  A    between atoms: _355  and  _358
REMARK  151  A    between atoms: _358  and  _359
REMARK  152  A    between atoms: _364  and  _366
REMARK  153  A    between atoms: _366  and  _367
REMARK  154  A    between atoms: _366  and  _369
REMARK  155  A    between atoms: _369  and  _370
REMARK  156  A    between atoms: _370  and  _371
REMARK  157  A    between atoms: _374  and  _376
REMARK  158  A    between atoms: _376  and  _377
REMARK  159  A    between atoms: _376  and  _379
REMARK  160  A    between atoms: _379  and  _380
REMARK  161  A    between atoms: _383  and  _385
REMARK  162  A    between atoms: _385  and  _386
REMARK  163  A    between atoms: _385  and  _388
REMARK  164  A    between atoms: _388  and  _389
REMARK  165  A    between atoms: _392  and  _394
REMARK  166  A    between atoms: _394  and  _395
REMARK  167  A    between atoms: _394  and  _397
REMARK  168  A    between atoms: _397  and  _398
REMARK  169  A    between atoms: _401  and  _403
REMARK  170  A    between atoms: _403  and  _404
REMARK  171  A    between atoms: _403  and  _406
REMARK  172  A    between atoms: _406  and  _407
REMARK  173  A    between atoms: _407  and  _408
REMARK  174  A    between atoms: _410  and  _412
REMARK  175  A    between atoms: _412  and  _413
REMARK  176  A    between atoms: _412  and  _415
REMARK  177  A    between atoms: _415  and  _416
REMARK  178  A    between atoms: _416  and  _417
REMARK  179  A    between atoms: _420  and  _422
REMARK  180  A    between atoms: _422  and  _423
REMARK  181  A    between atoms: _422  and  _425
REMARK  182  A    between atoms: _425  and  _426
REMARK  183  A    between atoms: _428  and  _430
REMARK  184  A    between atoms: _430  and  _431
REMARK  185  A    between atoms: _430  and  _433
REMARK  186  A    between atoms: _433  and  _434
REMARK  187  A    between atoms: _437  and  _439
REMARK  188  A    between atoms: _439  and  _440
REMARK  189  A    between atoms: _439  and  _442
REMARK  190  A    between atoms: _442  and  _443
REMARK  191  A    between atoms: _446  and  _448
REMARK  192  A    between atoms: _448  and  _449
REMARK  193  A    between atoms: _448  and  _451
REMARK  194  A    between atoms: _451  and  _452
REMARK  195  A    between atoms: _455  and  _457
REMARK  196  A    between atoms: _457  and  _458
REMARK  197  A    between atoms: _457  and  _460
REMARK  198  A    between atoms: _460  and  _461
REMARK  199  A    between atoms: _464  and  _466
REMARK  200  A    between atoms: _466  and  _467
REMARK  201  A    between atoms: _466  and  _469
REMARK  202  A    between atoms: _469  and  _470
REMARK  203  A    between atoms: _470  and  _471
REMARK  204  A    between atoms: _471  and  _472
REMARK  205  A    between atoms: _472  and  _473
REMARK  206  A    between atoms: _477  and  _479
REMARK  207  A    between atoms: _479  and  _480
REMARK  208  A    between atoms: _482  and  _484
REMARK  209  A    between atoms: _484  and  _485
REMARK  210  A    between atoms: _484  and  _487
REMARK  211  A    between atoms: _487  and  _488
REMARK  212  A    between atoms: _493  and  _494
REMARK  213  A    between atoms: _496  and  _498
REMARK  214  A    between atoms: _498  and  _499
REMARK  215  A    between atoms: _501  and  _503
REMARK  216  A    between atoms: _503  and  _504
REMARK  217  A    between atoms: _503  and  _506
REMARK  218  A    between atoms: _506  and  _507
REMARK                            x       y       z     vdW  Elec       q    Type
REMARK                         _______ _______ _______ _____ _____    ______ ____
ROOT
ATOM      1  CA  ILE A   1      16.271  22.604  19.252  0.00  0.00    +0.133 C 
ENDROOT
BRANCH   1   2
ATOM      2  N   ILE A   1      16.493  23.506  18.125  0.00  0.00    -0.239 NA
ATOM      3  H   ILE A   1      15.735  23.625  17.423  0.00  0.00    +0.142 HD
ENDBRANCH   1   2
BRANCH   1   4
ATOM      4  CB  ILE A   1      14.817  22.080  19.263  0.00  0.00    +0.023 C 
ATOM      5  CG2 ILE A   1      14.618  21.062  20.378  0.00  0.00    +0.002 C 
BRANCH   4   6
ATOM      6  CG1 ILE A   1      13.844  23.244  19.424  0.00  0.00    +0.002 C 
ATOM      7  CD1 ILE A   1      14.129  24.086  20.647  0.00  0.00    +0.000 C 
ENDBRANCH   4   6
ENDBRANCH   1   4
BRANCH   1   8
ATOM      8  C   ILE A   1      17.214  21.407  19.258  0.00  0.00    +0.224 C 
ATOM      9  O   ILE A   1      17.795  21.060  20.286  0.00  0.00    -0.287 OA
ENDBRANCH   1   8
TORSDOF 4
REMARK  Name = ../refined-set-2016/4nwc/4nwc_pocket.pdb
REMARK  218 active torsions:
REMARK  status: ('A' for Active; 'I' for Inactive)
REMARK    1  A    between atoms: _1  and  _3
REMARK    2  A    between atoms: _3  and  _4
REMARK    3  A    between atoms: _3  and  _6
REMARK    4  A    between atoms: _6  and  _7
REMARK    5  A    between atoms: _10  and  _12
REMARK    6  A    between atoms: _12  and  _13
REMARK    7  A    between atoms: _12  and  _15
REMARK    8  A    between atoms: _15  and  _16
REMARK    9  A    between atoms: _19  and  _21
REMARK   10  A    between atoms: _21  and  _22
REMARK   11  A    between atoms: _21  and  _24
REMARK   12  A    between atoms: _24  and  _25
REMARK   13  A    between atoms: _25  and  _26
REMARK   14  A    between atoms: _29  and  _31
REMARK   15  A    between atoms: _31  and  _32
REMARK   16  A    between atoms: _31  and  _34
REMARK   17  A    between atoms: _34  and  _35
REMARK   18  A    between atoms: _35  and  _36
REMARK   19  A    between atoms: _40  and  _41
REMARK   20  A    between atoms: _46  and  _48
REMARK   21  A    between atoms: _48  and  _49
REMARK   22  A    between atoms: _48  and  _51
REMARK   23  A    between atoms: _51  and  _52
REMARK   24  A    between atoms: _58  and  _60
REMARK   25  A    between atoms: _60  and  _61
REMARK   26  A    between atoms: _60  and  _63
REMARK   27  A    between atoms: _63  and  _64
REMARK   28  A    between atoms: _64  and  _65
REMARK   29  A    between atoms: _65  and  _66
REMARK   30  A    between atoms: _66  and  _67
REMARK   31  A    between atoms: _71  and  _73
REMARK   32  A    between atoms: _73  and  _74
REMARK   33  A    between atoms: _73  and  _76
REMARK   34  A    between atoms: _76  and  _77
REMARK   35  A    between atoms: _82  and  _83
REMARK   36  A    between atoms: _85  and  _87
REMARK   37  A    between atoms: _87  and  _88
REMARK   38  A    between atoms: _90  and  _92
REMARK   39  A    between atoms: _92  and  _93
REMARK   40  A    between atoms: _96  and  _98
REMARK   41  A    between atoms: _98  and  _99
REMARK   42  A    between atoms: _98  and  _101
REMARK   43  A    between atoms: _101  and  _102
REMARK   44  A    between atoms: _102  and  _103
REMARK   45  A    between atoms: _105  and  _107
REMARK   46  A    between atoms: _107  and  _108
REMARK   47  A    between atoms: _107  and  _110
REMARK   48  A    between atoms: _113  and  _115
REMARK   49  A    between atoms: _115  and  _116
REMARK   50  A    between atoms: _120  and  _121
REMARK   51  A    between atoms: _126  and  _128
REMARK   52  A    between atoms: _128  and  _129
REMARK   53  A    between atoms: _128  and  _131
REMARK   54  A    between atoms: _131  and  _132
REMARK   55  A    between atoms: _135  and  _137
REMARK   56  A    between atoms: _137  and  _138
REMARK   57  A    between atoms: _137  and  _140
REMARK   58  A    between atoms: _140  and  _141
REMARK   59  A    between atoms: _144  and  _146
REMARK   60  A    between atoms: _146  and  _147
REMARK   61  A    between atoms: _146  and  _149
REMARK   62  A    between atoms: _149  and  _150
REMARK   63  A    between atoms: _153  and  _155
REMARK   64  A    between atoms: _155  and  _156
REMARK   65  A    between atoms: _155  and  _158
REMARK   66  A    between atoms: _158  and  _159
REMARK   67  A    between atoms: _162  and  _164
REMARK   68  A    between atoms: _164  and  _165
REMARK   69  A    between atoms: _164  and  _167
REMARK   70  A    between atoms: _167  and  _168
REMARK   71  A    between atoms: _168  and  _169
REMARK   72  A    between atoms: _169  and  _170
REMARK   73  A    between atoms: _179  and  _181
REMARK   74  A    between atoms: _181  and  _182
REMARK   75  A    between atoms: _181  and  _184
REMARK   76  A    between atoms: _184  and  _185
REMARK   77  A    between atoms: _191  and  _193
REMARK   78  A    between atoms: _193  and  _194
REMARK   79  A    between atoms: _193  and  _196
REMARK   80  A    between atoms: _196  and  _197
REMARK   81  A    between atoms: _197  and  _198
REMARK   82  A    between atoms: _200  and  _202
REMARK   83  A    between atoms: _202  and  _203
REMARK   84  A    between atoms: _202  and  _205
REMARK   85  A    between atoms: _205  and  _206
REMARK   86  A    between atoms: _209  and  _211
REMARK   87  A    between atoms: _211  and  _212
REMARK   88  A    between atoms: _214  and  _216
REMARK   89  A    between atoms: _216  and  _217
REMARK   90  A    between atoms: _216  and  _219
REMARK   91  A    between atoms: _222  and  _224
REMARK   92  A    between atoms: _224  and  _225
REMARK   93  A    between atoms: _224  and  _227
REMARK   94  A    between atoms: _227  and  _228
REMARK   95  A    between atoms: _230  and  _232
REMARK   96  A    between atoms: _232  and  _233
REMARK   97  A    between atoms: _235  and  _237
REMARK   98  A    between atoms: _237  and  _238
REMARK   99  A    between atoms: _241  and  _243
REMARK  100  A    between atoms: _243  and  _244
REMARK  101  A    between atoms: _243  and  _246
REMARK  102  A    between atoms: _249  and  _251
REMARK  103  A    between atoms: _251  and  _252
REMARK  104  A    between atoms: _251  and  _254
REMARK  105  A    between atoms: _254  and  _255
REMARK  106  A    between atoms: _255  and  _256
REMARK  107  A    between atoms: _256  and  _257
REMARK  108  A    between atoms: _257  and  _258
REMARK  109  A    between atoms: _262  and  _264
REMARK  110  A    between atoms: _264  and  _265
REMARK  111  A    between atoms: _264  and  _267
REMARK  112  A    between atoms: _267  and  _268
REMARK  113  A    between atoms: _271  and  _273
REMARK  114  A    between atoms: _273  and  _274
REMARK  115  A    between atoms: _276  and  _278
REMARK  116  A    between atoms: _278  and  _279
REMARK  117  A    between atoms: _282  and  _284
REMARK  118  A    between atoms: _284  and  _285
REMARK  119  A    between atoms: _284  and  _287
REMARK  120  A    between atoms: _287  and  _288
REMARK  121  A    between atoms: _291  and  _293
REMARK  122  A    between atoms: _293  and  _294
REMARK  123  A    between atoms: _293  and  _296
REMARK  124  A    between atoms: _296  and  _297
REMARK  125  A    between atoms: _297  and  _298
REMARK  126  A    between atoms: _300  and  _302
REMARK  127  A    between atoms: _302  and  _303
REMARK  128  A    between atoms: _302  and  _305
REMARK  129  A    between atoms: _305  and  _306
REMARK  130  A    between atoms: _309  and  _311
REMARK  131  A    between atoms: _311  and  _312
REMARK  132  A    between atoms: _311  and  _314
REMARK  133  A    between atoms: _314  and  _315
REMARK  134  A    between atoms: _321  and  _323
REMARK  135  A    between atoms: _323  and  _324
REMARK  136  A    between atoms: _323  and  _326
REMARK  137  A    between atoms: _329  and  _331
REMARK  138  A    between atoms: _331  and  _332
REMARK  139  A    between atoms: _331  and  _334
REMARK  140  A    between atoms: _334  and  _335
REMARK  141  A    between atoms: _335  and  _336
REMARK  142  A    between atoms: _336  and  _337
REMARK  143  A    between atoms: _337  and  _338
REMARK  144  A    between atoms: _342  and  _344
REMARK  145  A    between atoms: _344  and  _345
REMARK  146  A    between atoms: _344  and  _347
REMARK  147  A    between atoms: _347  and  _348
REMARK  148  A    between atoms: _353  and  _355
REMARK  149  A    between atoms: _355  and  _356
REMARK  150  A    between atoms: _355  and  _358
REMARK  151  A    between atoms: _358  and  _359
REMARK  152  A    between atoms: _364  and  _366
REMARK  153  A    between atoms: _366  and  _367
REMARK  154  A    between atoms: _366  and  _369
REMARK  155  A    between atoms: _369  and  _370
REMARK  156  A    between atoms: _370  and  _371
REMARK  157  A    between atoms: _374  and  _376
REMARK  158  A    between atoms: _376  and  _377
REMARK  159  A    between atoms: _376  and  _379
REMARK  160  A    between atoms: _379  and  _380
REMARK  161  A    between atoms: _383  and  _385
REMARK  162  A    between atoms: _385  and  _386
REMARK  163  A    between atoms: _385  and  _388
REMARK  164  A    between atoms: _388  and  _389
REMARK  165  A    between atoms: _392  and  _394
REMARK  166  A    between atoms: _394  and  _395
REMARK  167  A    between atoms: _394  and  _397
REMARK  168  A    between atoms: _397  and  _398
REMARK  169  A    between atoms: _401  and  _403
REMARK  170  A    between atoms: _403  and  _404
REMARK  171  A    between atoms: _403  and  _406
REMARK  172  A    between atoms: _406  and  _407
REMARK  173  A    between atoms: _407  and  _408
REMARK  174  A    between atoms: _410  and  _412
REMARK  175  A    between atoms: _412  and  _413
REMARK  176  A    between atoms: _412  and  _415
REMARK  177  A    between atoms: _415  and  _416
REMARK  178  A    between atoms: _416  and  _417
REMARK  179  A    between atoms: _420  and  _422
REMARK  180  A    between atoms: _422  and  _423
REMARK  181  A    between atoms: _422  and  _425
REMARK  182  A    between atoms: _425  and  _426
REMARK  183  A    between atoms: _428  and  _430
REMARK  184  A    between atoms: _430  and  _431
REMARK  185  A    between atoms: _430  and  _433
REMARK  186  A    between atoms: _433  and  _434
REMARK  187  A    between atoms: _437  and  _439
REMARK  188  A    between atoms: _439  and  _440
REMARK  189  A    between atoms: _439  and  _442
REMARK  190  A    between atoms: _442  and  _443
REMARK  191  A    between atoms: _446  and  _448
REMARK  192  A    between atoms: _448  and  _449
REMARK  193  A    between atoms: _448  and  _451
REMARK  194  A    between atoms: _451  and  _452
REMARK  195  A    between atoms: _455  and  _457
REMARK  196  A    between atoms: _457  and  _458
REMARK  197  A    between atoms: _457  and  _460
REMARK  198  A    between atoms: _460  and  _461
REMARK  199  A    between atoms: _464  and  _466
REMARK  200  A    between atoms: _466  and  _467
REMARK  201  A    between atoms: _466  and  _469
REMARK  202  A    between atoms: _469  and  _470
REMARK  203  A    between atoms: _470  and  _471
REMARK  204  A    between atoms: _471  and  _472
REMARK  205  A    between atoms: _472  and  _473
REMARK  206  A    between atoms: _477  and  _479
REMARK  207  A    between atoms: _479  and  _480
REMARK  208  A    between atoms: _482  and  _484
REMARK  209  A    between atoms: _484  and  _485
REMARK  210  A    between atoms: _484  and  _487
REMARK  211  A    between atoms: _487  and  _488
REMARK  212  A    between atoms: _493  and  _494
REMARK  213  A    between atoms: _496  and  _498
REMARK  214  A    between atoms: _498  and  _499
REMARK  215  A    between atoms: _501  and  _503
REMARK  216  A    between atoms: _503  and  _504
REMARK  217  A    between atoms: _503  and  _506
REMARK  218  A    between atoms: _506  and  _507
REMARK                            x       y       z     vdW  Elec       q    Type
REMARK                         _______ _______ _______ _____ _____    ______ ____
ROOT
ATOM      1  C   GLY A   2       7.205  32.209   6.206  0.00  0.00    +0.243 C 
ATOM      2  N   TYR A   3       8.072  32.862   6.980  0.00  0.00    -0.297 N 
ATOM      3  H   TYR A   3       9.089  32.717   6.816  0.00  0.00    +0.150 HD
ATOM      4  O   GLY A   2       5.988  32.110   6.450  0.00  0.00    -0.273 OA
ENDROOT
BRANCH   1   5
ATOM      5  CA  GLY A   2       7.797  31.530   4.988  0.00  0.00    +0.176 C 
BRANCH   5   7
ATOM      6  C   LYS A   1       7.474  29.249   4.202  0.00  0.00    +0.238 C 
ATOM      7  N   GLY A   2       6.964  30.430   4.535  0.00  0.00    -0.296 N 
ATOM      8  H   GLY A   2       5.936  30.571   4.469  0.00  0.00    +0.150 HD
ATOM      9  O   LYS A   1       8.661  28.957   4.330  0.00  0.00    -0.274 OA
BRANCH   6  10
ATOM     10  CA  LYS A   1       6.486  28.251   3.638  0.00  0.00    +0.145 C 
BRANCH  10  11
ATOM     11  N   LYS A   1       7.059  26.932   3.394  0.00  0.00    -0.238 NA
ATOM     12  H   LYS A   1       7.933  26.653   3.884  0.00  0.00    +0.142 HD
ENDBRANCH  10  11
BRANCH  10  13
ATOM     13  CB  LYS A   1       5.251  28.173   4.530  0.00  0.00    +0.026 C 
BRANCH  13  14
ATOM     14  CG  LYS A   1       5.383  27.287   5.737  0.00  0.00    -0.000 C 
BRANCH  14  15
ATOM     15  CD  LYS A   1       3.988  26.786   6.080  0.00  0.00    -0.024 C 
BRANCH  15  16
ATOM     16  CE  LYS A   1       4.019  25.624   7.035  0.00  0.00    -0.086 C 
BRANCH  16  17
ATOM     17  NZ  LYS A   1       2.634  25.149   7.351  0.00  0.00    +0.380 N 
ATOM     18  HZ1 LYS A   1       2.686  24.347   8.011  0.00  0.00    -0.089 HD
ATOM     19  HZ2 LYS A   1       2.094  25.924   7.786  0.00  0.00    -0.089 HD
ATOM     20  HZ3 LYS A   1       2.164  24.847   6.474  0.00  0.00    -0.089 HD
ENDBRANCH  16  17
ENDBRANCH  15  16
ENDBRANCH  14  15
ENDBRANCH  13  14
ENDBRANCH  10  13
ENDBRANCH   6  10
ENDBRANCH   5   7
ENDBRANCH   1   5
BRANCH   2  21
ATOM     21  CA  TYR A   3       7.662  33.773   8.048  0.00  0.00    +0.153 C 
BRANCH  21  22
ATOM     22  C   TYR A   3       7.673  35.182   7.501  0.00  0.00    +0.241 C 
ATOM     23  N   GLY A   4       6.658  35.960   7.842  0.00  0.00    -0.296 N 
ATOM     24  H   GLY A   4       5.898  35.578   8.440  0.00  0.00    +0.150 HD
ATOM     25  O   TYR A   3       8.612  35.572   6.806  0.00  0.00    -0.273 OA
BRANCH  23  26
ATOM     26  CA  GLY A   4       6.591  37.336   7.395  0.00  0.00    +0.163 C 
BRANCH  26  27
ATOM     27  C   GLY A   4       6.194  38.213   8.558  0.00  0.00    +0.229 C 
ATOM     28  O   GLY A   4       5.722  37.723   9.591  0.00  0.00    -0.286 OA
ENDBRANCH  26  27
ENDBRANCH  23  26
ENDBRANCH  21  22
BRANCH  21  29
ATOM     29  CB  TYR A   3       8.673  33.755   9.194  0.00  0.00    +0.055 C 
BRANCH  29  30
ATOM     30  CG  TYR A   3       8.718  32.477   9.982  0.00  0.00    -0.020 A 
ATOM     31  CD2 TYR A   3       9.905  32.046  10.551  0.00  0.00    -0.001 A 
ATOM     32  CE2 TYR A   3       9.968  30.873  11.274  0.00  0.00    +0.036 A 
ATOM     33  CZ  TYR A   3       8.835  30.119  11.446  0.00  0.00    +0.134 A 
ATOM     34  CE1 TYR A   3       7.634  30.518  10.897  0.00  0.00    +0.036 A 
ATOM     35  CD1 TYR A   3       7.579  31.706  10.166  0.00  0.00    -0.001 A 
BRANCH  33  36
ATOM     36  OH  TYR A   3       8.914  28.954  12.168  0.00  0.00    -0.506 OA
ATOM     37  HH  TYR A   3       8.021  28.527  12.203  0.00  0.00    +0.292 HD
ENDBRANCH  33  36
ENDBRANCH  29  30
ENDBRANCH  21  29
ENDBRANCH   2  21
TORSDOF 16
REMARK  Name = ../refined-set-2016/4nwc/4nwc_pocket.pdb
REMARK  218 active torsions:
REMARK  status: ('A' for Active; 'I' for Inactive)
REMARK    1  A    between atoms: _1  and  _3
REMARK    2  A    between atoms: _3  and  _4
REMARK    3  A    between atoms: _3  and  _6
REMARK    4  A    between atoms: _6  and  _7
REMARK    5  A    between atoms: _10  and  _12
REMARK    6  A    between atoms: _12  and  _13
REMARK    7  A    between atoms: _12  and  _15
REMARK    8  A    between atoms: _15  and  _16
REMARK    9  A    between atoms: _19  and  _21
REMARK   10  A    between atoms: _21  and  _22
REMARK   11  A    between atoms: _21  and  _24
REMARK   12  A    between atoms: _24  and  _25
REMARK   13  A    between atoms: _25  and  _26
REMARK   14  A    between atoms: _29  and  _31
REMARK   15  A    between atoms: _31  and  _32
REMARK   16  A    between atoms: _31  and  _34
REMARK   17  A    between atoms: _34  and  _35
REMARK   18  A    between atoms: _35  and  _36
REMARK   19  A    between atoms: _40  and  _41
REMARK   20  A    between atoms: _46  and  _48
REMARK   21  A    between atoms: _48  and  _49
REMARK   22  A    between atoms: _48  and  _51
REMARK   23  A    between atoms: _51  and  _52
REMARK   24  A    between atoms: _58  and  _60
REMARK   25  A    between atoms: _60  and  _61
REMARK   26  A    between atoms: _60  and  _63
REMARK   27  A    between atoms: _63  and  _64
REMARK   28  A    between atoms: _64  and  _65
REMARK   29  A    between atoms: _65  and  _66
REMARK   30  A    between atoms: _66  and  _67
REMARK   31  A    between atoms: _71  and  _73
REMARK   32  A    between atoms: _73  and  _74
REMARK   33  A    between atoms: _73  and  _76
REMARK   34  A    between atoms: _76  and  _77
REMARK   35  A    between atoms: _82  and  _83
REMARK   36  A    between atoms: _85  and  _87
REMARK   37  A    between atoms: _87  and  _88
REMARK   38  A    between atoms: _90  and  _92
REMARK   39  A    between atoms: _92  and  _93
REMARK   40  A    between atoms: _96  and  _98
REMARK   41  A    between atoms: _98  and  _99
REMARK   42  A    between atoms: _98  and  _101
REMARK   43  A    between atoms: _101  and  _102
REMARK   44  A    between atoms: _102  and  _103
REMARK   45  A    between atoms: _105  and  _107
REMARK   46  A    between atoms: _107  and  _108
REMARK   47  A    between atoms: _107  and  _110
REMARK   48  A    between atoms: _113  and  _115
REMARK   49  A    between atoms: _115  and  _116
REMARK   50  A    between atoms: _120  and  _121
REMARK   51  A    between atoms: _126  and  _128
REMARK   52  A    between atoms: _128  and  _129
REMARK   53  A    between atoms: _128  and  _131
REMARK   54  A    between atoms: _131  and  _132
REMARK   55  A    between atoms: _135  and  _137
REMARK   56  A    between atoms: _137  and  _138
REMARK   57  A    between atoms: _137  and  _140
REMARK   58  A    between atoms: _140  and  _141
REMARK   59  A    between atoms: _144  and  _146
REMARK   60  A    between atoms: _146  and  _147
REMARK   61  A    between atoms: _146  and  _149
REMARK   62  A    between atoms: _149  and  _150
REMARK   63  A    between atoms: _153  and  _155
REMARK   64  A    between atoms: _155  and  _156
REMARK   65  A    between atoms: _155  and  _158
REMARK   66  A    between atoms: _158  and  _159
REMARK   67  A    between atoms: _162  and  _164
REMARK   68  A    between atoms: _164  and  _165
REMARK   69  A    between atoms: _164  and  _167
REMARK   70  A    between atoms: _167  and  _168
REMARK   71  A    between atoms: _168  and  _169
REMARK   72  A    between atoms: _169  and  _170
REMARK   73  A    between atoms: _179  and  _181
REMARK   74  A    between atoms: _181  and  _182
REMARK   75  A    between atoms: _181  and  _184
REMARK   76  A    between atoms: _184  and  _185
REMARK   77  A    between atoms: _191  and  _193
REMARK   78  A    between atoms: _193  and  _194
REMARK   79  A    between atoms: _193  and  _196
REMARK   80  A    between atoms: _196  and  _197
REMARK   81  A    between atoms: _197  and  _198
REMARK   82  A    between atoms: _200  and  _202
REMARK   83  A    between atoms: _202  and  _203
REMARK   84  A    between atoms: _202  and  _205
REMARK   85  A    between atoms: _205  and  _206
REMARK   86  A    between atoms: _209  and  _211
REMARK   87  A    between atoms: _211  and  _212
REMARK   88  A    between atoms: _214  and  _216
REMARK   89  A    between atoms: _216  and  _217
REMARK   90  A    between atoms: _216  and  _219
REMARK   91  A    between atoms: _222  and  _224
REMARK   92  A    between atoms: _224  and  _225
REMARK   93  A    between atoms: _224  and  _227
REMARK   94  A    between atoms: _227  and  _228
REMARK   95  A    between atoms: _230  and  _232
REMARK   96  A    between atoms: _232  and  _233
REMARK   97  A    between atoms: _235  and  _237
REMARK   98  A    between atoms: _237  and  _238
REMARK   99  A    between atoms: _241  and  _243
REMARK  100  A    between atoms: _243  and  _244
REMARK  101  A    between atoms: _243  and  _246
REMARK  102  A    between atoms: _249  and  _251
REMARK  103  A    between atoms: _251  and  _252
REMARK  104  A    between atoms: _251  and  _254
REMARK  105  A    between atoms: _254  and  _255
REMARK  106  A    between atoms: _255  and  _256
REMARK  107  A    between atoms: _256  and  _257
REMARK  108  A    between atoms: _257  and  _258
REMARK  109  A    between atoms: _262  and  _264
REMARK  110  A    between atoms: _264  and  _265
REMARK  111  A    between atoms: _264  and  _267
REMARK  112  A    between atoms: _267  and  _268
REMARK  113  A    between atoms: _271  and  _273
REMARK  114  A    between atoms: _273  and  _274
REMARK  115  A    between atoms: _276  and  _278
REMARK  116  A    between atoms: _278  and  _279
REMARK  117  A    between atoms: _282  and  _284
REMARK  118  A    between atoms: _284  and  _285
REMARK  119  A    between atoms: _284  and  _287
REMARK  120  A    between atoms: _287  and  _288
REMARK  121  A    between atoms: _291  and  _293
REMARK  122  A    between atoms: _293  and  _294
REMARK  123  A    between atoms: _293  and  _296
REMARK  124  A    between atoms: _296  and  _297
REMARK  125  A    between atoms: _297  and  _298
REMARK  126  A    between atoms: _300  and  _302
REMARK  127  A    between atoms: _302  and  _303
REMARK  128  A    between atoms: _302  and  _305
REMARK  129  A    between atoms: _305  and  _306
REMARK  130  A    between atoms: _309  and  _311
REMARK  131  A    between atoms: _311  and  _312
REMARK  132  A    between atoms: _311  and  _314
REMARK  133  A    between atoms: _314  and  _315
REMARK  134  A    between atoms: _321  and  _323
REMARK  135  A    between atoms: _323  and  _324
REMARK  136  A    between atoms: _323  and  _326
REMARK  137  A    between atoms: _329  and  _331
REMARK  138  A    between atoms: _331  and  _332
REMARK  139  A    between atoms: _331  and  _334
REMARK  140  A    between atoms: _334  and  _335
REMARK  141  A    between atoms: _335  and  _336
REMARK  142  A    between atoms: _336  and  _337
REMARK  143  A    between atoms: _337  and  _338
REMARK  144  A    between atoms: _342  and  _344
REMARK  145  A    between atoms: _344  and  _345
REMARK  146  A    between atoms: _344  and  _347
REMARK  147  A    between atoms: _347  and  _348
REMARK  148  A    between atoms: _353  and  _355
REMARK  149  A    between atoms: _355  and  _356
REMARK  150  A    between atoms: _355  and  _358
REMARK  151  A    between atoms: _358  and  _359
REMARK  152  A    between atoms: _364  and  _366
REMARK  153  A    between atoms: _366  and  _367
REMARK  154  A    between atoms: _366  and  _369
REMARK  155  A    between atoms: _369  and  _370
REMARK  156  A    between atoms: _370  and  _371
REMARK  157  A    between atoms: _374  and  _376
REMARK  158  A    between atoms: _376  and  _377
REMARK  159  A    between atoms: _376  and  _379
REMARK  160  A    between atoms: _379  and  _380
REMARK  161  A    between atoms: _383  and  _385
REMARK  162  A    between atoms: _385  and  _386
REMARK  163  A    between atoms: _385  and  _388
REMARK  164  A    between atoms: _388  and  _389
REMARK  165  A    between atoms: _392  and  _394
REMARK  166  A    between atoms: _394  and  _395
REMARK  167  A    between atoms: _394  and  _397
REMARK  168  A    between atoms: _397  and  _398
REMARK  169  A    between atoms: _401  and  _403
REMARK  170  A    between atoms: _403  and  _404
REMARK  171  A    between atoms: _403  and  _406
REMARK  172  A    between atoms: _406  and  _407
REMARK  173  A    between atoms: _407  and  _408
REMARK  174  A    between atoms: _410  and  _412
REMARK  175  A    between atoms: _412  and  _413
REMARK  176  A    between atoms: _412  and  _415
REMARK  177  A    between atoms: _415  and  _416
REMARK  178  A    between atoms: _416  and  _417
REMARK  179  A    between atoms: _420  and  _422
REMARK  180  A    between atoms: _422  and  _423
REMARK  181  A    between atoms: _422  and  _425
REMARK  182  A    between atoms: _425  and  _426
REMARK  183  A    between atoms: _428  and  _430
REMARK  184  A    between atoms: _430  and  _431
REMARK  185  A    between atoms: _430  and  _433
REMARK  186  A    between atoms: _433  and  _434
REMARK  187  A    between atoms: _437  and  _439
REMARK  188  A    between atoms: _439  and  _440
REMARK  189  A    between atoms: _439  and  _442
REMARK  190  A    between atoms: _442  and  _443
REMARK  191  A    between atoms: _446  and  _448
REMARK  192  A    between atoms: _448  and  _449
REMARK  193  A    between atoms: _448  and  _451
REMARK  194  A    between atoms: _451  and  _452
REMARK  195  A    between atoms: _455  and  _457
REMARK  196  A    between atoms: _457  and  _458
REMARK  197  A    between atoms: _457  and  _460
REMARK  198  A    between atoms: _460  and  _461
REMARK  199  A    between atoms: _464  and  _466
REMARK  200  A    between atoms: _466  and  _467
REMARK  201  A    between atoms: _466  and  _469
REMARK  202  A    between atoms: _469  and  _470
REMARK  203  A    between atoms: _470  and  _471
REMARK  204  A    between atoms: _471  and  _472
REMARK  205  A    between atoms: _472  and  _473
REMARK  206  A    between atoms: _477  and  _479
REMARK  207  A    between atoms: _479  and  _480
REMARK  208  A    between atoms: _482  and  _484
REMARK  209  A    between atoms: _484  and  _485
REMARK  210  A    between atoms: _484  and  _487
REMARK  211  A    between atoms: _487  and  _488
REMARK  212  A    between atoms: _493  and  _494
REMARK  213  A    between atoms: _496  and  _498
REMARK  214  A    between atoms: _498  and  _499
REMARK  215  A    between atoms: _501  and  _503
REMARK  216  A    between atoms: _503  and  _504
REMARK  217  A    between atoms: _503  and  _506
REMARK  218  A    between atoms: _506  and  _507
REMARK                            x       y       z     vdW  Elec       q    Type
REMARK                         _______ _______ _______ _____ _____    ______ ____
ROOT
ATOM      1  CG  TRP A   1      19.529  28.893  14.094  0.00  0.00    -0.002 A 
ATOM      2  CD2 TRP A   1      18.485  29.882  14.061  0.00  0.00    +0.013 A 
ATOM      3  CE3 TRP A   1      18.465  31.280  14.152  0.00  0.00    +0.001 A 
ATOM      4  CZ3 TRP A   1      17.247  31.935  14.080  0.00  0.00    +0.000 A 
ATOM      5  CH2 TRP A   1      16.045  31.226  13.917  0.00  0.00    +0.001 A 
ATOM      6  CZ2 TRP A   1      16.031  29.859  13.828  0.00  0.00    +0.017 A 
ATOM      7  CE2 TRP A   1      17.263  29.197  13.895  0.00  0.00    +0.056 A 
ATOM      8  NE1 TRP A   1      17.549  27.860  13.825  0.00  0.00    -0.352 N 
ATOM      9  HE1 TRP A   1      16.850  27.100  13.701  0.00  0.00    +0.166 HD
ATOM     10  CD1 TRP A   1      18.905  27.683  13.945  0.00  0.00    +0.068 A 
ENDROOT
BRANCH   1  11
ATOM     11  CB  TRP A   1      21.025  29.126  14.249  0.00  0.00    +0.053 C 
BRANCH  11  12
ATOM     12  CA  TRP A   1      21.461  29.636  15.634  0.00  0.00    +0.137 C 
BRANCH  12  13
ATOM     13  N   TRP A   1      21.511  31.099  15.656  0.00  0.00    -0.239 NA
ATOM     14  H   TRP A   1      21.836  31.612  14.812  0.00  0.00    +0.142 HD
ENDBRANCH  12  13
BRANCH  12  15
ATOM     15  C   TRP A   1      22.793  28.995  16.016  0.00  0.00    +0.224 C 
ATOM     16  O   TRP A   1      22.831  27.840  16.427  0.00  0.00    -0.287 OA
ENDBRANCH  12  15
ENDBRANCH  11  12
ENDBRANCH   1  11
TORSDOF 4
REMARK  Name = ../refined-set-2016/4nwc/4nwc_pocket.pdb
REMARK  218 active torsions:
REMARK  status: ('A' for Active; 'I' for Inactive)
REMARK    1  A    between atoms: _1  and  _3
REMARK    2  A    between atoms: _3  and  _4
REMARK    3  A    between atoms: _3  and  _6
REMARK    4  A    between atoms: _6  and  _7
REMARK    5  A    between atoms: _10  and  _12
REMARK    6  A    between atoms: _12  and  _13
REMARK    7  A    between atoms: _12  and  _15
REMARK    8  A    between atoms: _15  and  _16
REMARK    9  A    between atoms: _19  and  _21
REMARK   10  A    between atoms: _21  and  _22
REMARK   11  A    between atoms: _21  and  _24
REMARK   12  A    between atoms: _24  and  _25
REMARK   13  A    between atoms: _25  and  _26
REMARK   14  A    between atoms: _29  and  _31
REMARK   15  A    between atoms: _31  and  _32
REMARK   16  A    between atoms: _31  and  _34
REMARK   17  A    between atoms: _34  and  _35
REMARK   18  A    between atoms: _35  and  _36
REMARK   19  A    between atoms: _40  and  _41
REMARK   20  A    between atoms: _46  and  _48
REMARK   21  A    between atoms: _48  and  _49
REMARK   22  A    between atoms: _48  and  _51
REMARK   23  A    between atoms: _51  and  _52
REMARK   24  A    between atoms: _58  and  _60
REMARK   25  A    between atoms: _60  and  _61
REMARK   26  A    between atoms: _60  and  _63
REMARK   27  A    between atoms: _63  and  _64
REMARK   28  A    between atoms: _64  and  _65
REMARK   29  A    between atoms: _65  and  _66
REMARK   30  A    between atoms: _66  and  _67
REMARK   31  A    between atoms: _71  and  _73
REMARK   32  A    between atoms: _73  and  _74
REMARK   33  A    between atoms: _73  and  _76
REMARK   34  A    between atoms: _76  and  _77
REMARK   35  A    between atoms: _82  and  _83
REMARK   36  A    between atoms: _85  and  _87
REMARK   37  A    between atoms: _87  and  _88
REMARK   38  A    between atoms: _90  and  _92
REMARK   39  A    between atoms: _92  and  _93
REMARK   40  A    between atoms: _96  and  _98
REMARK   41  A    between atoms: _98  and  _99
REMARK   42  A    between atoms: _98  and  _101
REMARK   43  A    between atoms: _101  and  _102
REMARK   44  A    between atoms: _102  and  _103
REMARK   45  A    between atoms: _105  and  _107
REMARK   46  A    between atoms: _107  and  _108
REMARK   47  A    between atoms: _107  and  _110
REMARK   48  A    between atoms: _113  and  _115
REMARK   49  A    between atoms: _115  and  _116
REMARK   50  A    between atoms: _120  and  _121
REMARK   51  A    between atoms: _126  and  _128
REMARK   52  A    between atoms: _128  and  _129
REMARK   53  A    between atoms: _128  and  _131
REMARK   54  A    between atoms: _131  and  _132
REMARK   55  A    between atoms: _135  and  _137
REMARK   56  A    between atoms: _137  and  _138
REMARK   57  A    between atoms: _137  and  _140
REMARK   58  A    between atoms: _140  and  _141
REMARK   59  A    between atoms: _144  and  _146
REMARK   60  A    between atoms: _146  and  _147
REMARK   61  A    between atoms: _146  and  _149
REMARK   62  A    between atoms: _149  and  _150
REMARK   63  A    between atoms: _153  and  _155
REMARK   64  A    between atoms: _155  and  _156
REMARK   65  A    between atoms: _155  and  _158
REMARK   66  A    between atoms: _158  and  _159
REMARK   67  A    between atoms: _162  and  _164
REMARK   68  A    between atoms: _164  and  _165
REMARK   69  A    between atoms: _164  and  _167
REMARK   70  A    between atoms: _167  and  _168
REMARK   71  A    between atoms: _168  and  _169
REMARK   72  A    between atoms: _169  and  _170
REMARK   73  A    between atoms: _179  and  _181
REMARK   74  A    between atoms: _181  and  _182
REMARK   75  A    between atoms: _181  and  _184
REMARK   76  A    between atoms: _184  and  _185
REMARK   77  A    between atoms: _191  and  _193
REMARK   78  A    between atoms: _193  and  _194
REMARK   79  A    between atoms: _193  and  _196
REMARK   80  A    between atoms: _196  and  _197
REMARK   81  A    between atoms: _197  and  _198
REMARK   82  A    between atoms: _200  and  _202
REMARK   83  A    between atoms: _202  and  _203
REMARK   84  A    between atoms: _202  and  _205
REMARK   85  A    between atoms: _205  and  _206
REMARK   86  A    between atoms: _209  and  _211
REMARK   87  A    between atoms: _211  and  _212
REMARK   88  A    between atoms: _214  and  _216
REMARK   89  A    between atoms: _216  and  _217
REMARK   90  A    between atoms: _216  and  _219
REMARK   91  A    between atoms: _222  and  _224
REMARK   92  A    between atoms: _224  and  _225
REMARK   93  A    between atoms: _224  and  _227
REMARK   94  A    between atoms: _227  and  _228
REMARK   95  A    between atoms: _230  and  _232
REMARK   96  A    between atoms: _232  and  _233
REMARK   97  A    between atoms: _235  and  _237
REMARK   98  A    between atoms: _237  and  _238
REMARK   99  A    between atoms: _241  and  _243
REMARK  100  A    between atoms: _243  and  _244
REMARK  101  A    between atoms: _243  and  _246
REMARK  102  A    between atoms: _249  and  _251
REMARK  103  A    between atoms: _251  and  _252
REMARK  104  A    between atoms: _251  and  _254
REMARK  105  A    between atoms: _254  and  _255
REMARK  106  A    between atoms: _255  and  _256
REMARK  107  A    between atoms: _256  and  _257
REMARK  108  A    between atoms: _257  and  _258
REMARK  109  A    between atoms: _262  and  _264
REMARK  110  A    between atoms: _264  and  _265
REMARK  111  A    between atoms: _264  and  _267
REMARK  112  A    between atoms: _267  and  _268
REMARK  113  A    between atoms: _271  and  _273
REMARK  114  A    between atoms: _273  and  _274
REMARK  115  A    between atoms: _276  and  _278
REMARK  116  A    between atoms: _278  and  _279
REMARK  117  A    between atoms: _282  and  _284
REMARK  118  A    between atoms: _284  and  _285
REMARK  119  A    between atoms: _284  and  _287
REMARK  120  A    between atoms: _287  and  _288
REMARK  121  A    between atoms: _291  and  _293
REMARK  122  A    between atoms: _293  and  _294
REMARK  123  A    between atoms: _293  and  _296
REMARK  124  A    between atoms: _296  and  _297
REMARK  125  A    between atoms: _297  and  _298
REMARK  126  A    between atoms: _300  and  _302
REMARK  127  A    between atoms: _302  and  _303
REMARK  128  A    between atoms: _302  and  _305
REMARK  129  A    between atoms: _305  and  _306
REMARK  130  A    between atoms: _309  and  _311
REMARK  131  A    between atoms: _311  and  _312
REMARK  132  A    between atoms: _311  and  _314
REMARK  133  A    between atoms: _314  and  _315
REMARK  134  A    between atoms: _321  and  _323
REMARK  135  A    between atoms: _323  and  _324
REMARK  136  A    between atoms: _323  and  _326
REMARK  137  A    between atoms: _329  and  _331
REMARK  138  A    between atoms: _331  and  _332
REMARK  139  A    between atoms: _331  and  _334
REMARK  140  A    between atoms: _334  and  _335
REMARK  141  A    between atoms: _335  and  _336
REMARK  142  A    between atoms: _336  and  _337
REMARK  143  A    between atoms: _337  and  _338
REMARK  144  A    between atoms: _342  and  _344
REMARK  145  A    between atoms: _344  and  _345
REMARK  146  A    between atoms: _344  and  _347
REMARK  147  A    between atoms: _347  and  _348
REMARK  148  A    between atoms: _353  and  _355
REMARK  149  A    between atoms: _355  and  _356
REMARK  150  A    between atoms: _355  and  _358
REMARK  151  A    between atoms: _358  and  _359
REMARK  152  A    between atoms: _364  and  _366
REMARK  153  A    between atoms: _366  and  _367
REMARK  154  A    between atoms: _366  and  _369
REMARK  155  A    between atoms: _369  and  _370
REMARK  156  A    between atoms: _370  and  _371
REMARK  157  A    between atoms: _374  and  _376
REMARK  158  A    between atoms: _376  and  _377
REMARK  159  A    between atoms: _376  and  _379
REMARK  160  A    between atoms: _379  and  _380
REMARK  161  A    between atoms: _383  and  _385
REMARK  162  A    between atoms: _385  and  _386
REMARK  163  A    between atoms: _385  and  _388
REMARK  164  A    between atoms: _388  and  _389
REMARK  165  A    between atoms: _392  and  _394
REMARK  166  A    between atoms: _394  and  _395
REMARK  167  A    between atoms: _394  and  _397
REMARK  168  A    between atoms: _397  and  _398
REMARK  169  A    between atoms: _401  and  _403
REMARK  170  A    between atoms: _403  and  _404
REMARK  171  A    between atoms: _403  and  _406
REMARK  172  A    between atoms: _406  and  _407
REMARK  173  A    between atoms: _407  and  _408
REMARK  174  A    between atoms: _410  and  _412
REMARK  175  A    between atoms: _412  and  _413
REMARK  176  A    between atoms: _412  and  _415
REMARK  177  A    between atoms: _415  and  _416
REMARK  178  A    between atoms: _416  and  _417
REMARK  179  A    between atoms: _420  and  _422
REMARK  180  A    between atoms: _422  and  _423
REMARK  181  A    between atoms: _422  and  _425
REMARK  182  A    between atoms: _425  and  _426
REMARK  183  A    between atoms: _428  and  _430
REMARK  184  A    between atoms: _430  and  _431
REMARK  185  A    between atoms: _430  and  _433
REMARK  186  A    between atoms: _433  and  _434
REMARK  187  A    between atoms: _437  and  _439
REMARK  188  A    between atoms: _439  and  _440
REMARK  189  A    between atoms: _439  and  _442
REMARK  190  A    between atoms: _442  and  _443
REMARK  191  A    between atoms: _446  and  _448
REMARK  192  A    between atoms: _448  and  _449
REMARK  193  A    between atoms: _448  and  _451
REMARK  194  A    between atoms: _451  and  _452
REMARK  195  A    between atoms: _455  and  _457
REMARK  196  A    between atoms: _457  and  _458
REMARK  197  A    between atoms: _457  and  _460
REMARK  198  A    between atoms: _460  and  _461
REMARK  199  A    between atoms: _464  and  _466
REMARK  200  A    between atoms: _466  and  _467
REMARK  201  A    between atoms: _466  and  _469
REMARK  202  A    between atoms: _469  and  _470
REMARK  203  A    between atoms: _470  and  _471
REMARK  204  A    between atoms: _471  and  _472
REMARK  205  A    between atoms: _472  and  _473
REMARK  206  A    between atoms: _477  and  _479
REMARK  207  A    between atoms: _479  and  _480
REMARK  208  A    between atoms: _482  and  _484
REMARK  209  A    between atoms: _484  and  _485
REMARK  210  A    between atoms: _484  and  _487
REMARK  211  A    between atoms: _487  and  _488
REMARK  212  A    between atoms: _493  and  _494
REMARK  213  A    between atoms: _496  and  _498
REMARK  214  A    between atoms: _498  and  _499
REMARK  215  A    between atoms: _501  and  _503
REMARK  216  A    between atoms: _503  and  _504
REMARK  217  A    between atoms: _503  and  _506
REMARK  218  A    between atoms: _506  and  _507
REMARK                            x       y       z     vdW  Elec       q    Type
REMARK                         _______ _______ _______ _____ _____    ______ ____
ROOT
ATOM      1  O   HOH     1       3.467  23.095  15.984  0.00  0.00    +0.000 OA
ENDROOT
TORSDOF 0
REMARK  Name = ../refined-set-2016/4nwc/4nwc_pocket.pdb
REMARK  218 active torsions:
REMARK  status: ('A' for Active; 'I' for Inactive)
REMARK    1  A    between atoms: _1  and  _3
REMARK    2  A    between atoms: _3  and  _4
REMARK    3  A    between atoms: _3  and  _6
REMARK    4  A    between atoms: _6  and  _7
REMARK    5  A    between atoms: _10  and  _12
REMARK    6  A    between atoms: _12  and  _13
REMARK    7  A    between atoms: _12  and  _15
REMARK    8  A    between atoms: _15  and  _16
REMARK    9  A    between atoms: _19  and  _21
REMARK   10  A    between atoms: _21  and  _22
REMARK   11  A    between atoms: _21  and  _24
REMARK   12  A    between atoms: _24  and  _25
REMARK   13  A    between atoms: _25  and  _26
REMARK   14  A    between atoms: _29  and  _31
REMARK   15  A    between atoms: _31  and  _32
REMARK   16  A    between atoms: _31  and  _34
REMARK   17  A    between atoms: _34  and  _35
REMARK   18  A    between atoms: _35  and  _36
REMARK   19  A    between atoms: _40  and  _41
REMARK   20  A    between atoms: _46  and  _48
REMARK   21  A    between atoms: _48  and  _49
REMARK   22  A    between atoms: _48  and  _51
REMARK   23  A    between atoms: _51  and  _52
REMARK   24  A    between atoms: _58  and  _60
REMARK   25  A    between atoms: _60  and  _61
REMARK   26  A    between atoms: _60  and  _63
REMARK   27  A    between atoms: _63  and  _64
REMARK   28  A    between atoms: _64  and  _65
REMARK   29  A    between atoms: _65  and  _66
REMARK   30  A    between atoms: _66  and  _67
REMARK   31  A    between atoms: _71  and  _73
REMARK   32  A    between atoms: _73  and  _74
REMARK   33  A    between atoms: _73  and  _76
REMARK   34  A    between atoms: _76  and  _77
REMARK   35  A    between atoms: _82  and  _83
REMARK   36  A    between atoms: _85  and  _87
REMARK   37  A    between atoms: _87  and  _88
REMARK   38  A    between atoms: _90  and  _92
REMARK   39  A    between atoms: _92  and  _93
REMARK   40  A    between atoms: _96  and  _98
REMARK   41  A    between atoms: _98  and  _99
REMARK   42  A    between atoms: _98  and  _101
REMARK   43  A    between atoms: _101  and  _102
REMARK   44  A    between atoms: _102  and  _103
REMARK   45  A    between atoms: _105  and  _107
REMARK   46  A    between atoms: _107  and  _108
REMARK   47  A    between atoms: _107  and  _110
REMARK   48  A    between atoms: _113  and  _115
REMARK   49  A    between atoms: _115  and  _116
REMARK   50  A    between atoms: _120  and  _121
REMARK   51  A    between atoms: _126  and  _128
REMARK   52  A    between atoms: _128  and  _129
REMARK   53  A    between atoms: _128  and  _131
REMARK   54  A    between atoms: _131  and  _132
REMARK   55  A    between atoms: _135  and  _137
REMARK   56  A    between atoms: _137  and  _138
REMARK   57  A    between atoms: _137  and  _140
REMARK   58  A    between atoms: _140  and  _141
REMARK   59  A    between atoms: _144  and  _146
REMARK   60  A    between atoms: _146  and  _147
REMARK   61  A    between atoms: _146  and  _149
REMARK   62  A    between atoms: _149  and  _150
REMARK   63  A    between atoms: _153  and  _155
REMARK   64  A    between atoms: _155  and  _156
REMARK   65  A    between atoms: _155  and  _158
REMARK   66  A    between atoms: _158  and  _159
REMARK   67  A    between atoms: _162  and  _164
REMARK   68  A    between atoms: _164  and  _165
REMARK   69  A    between atoms: _164  and  _167
REMARK   70  A    between atoms: _167  and  _168
REMARK   71  A    between atoms: _168  and  _169
REMARK   72  A    between atoms: _169  and  _170
REMARK   73  A    between atoms: _179  and  _181
REMARK   74  A    between atoms: _181  and  _182
REMARK   75  A    between atoms: _181  and  _184
REMARK   76  A    between atoms: _184  and  _185
REMARK   77  A    between atoms: _191  and  _193
REMARK   78  A    between atoms: _193  and  _194
REMARK   79  A    between atoms: _193  and  _196
REMARK   80  A    between atoms: _196  and  _197
REMARK   81  A    between atoms: _197  and  _198
REMARK   82  A    between atoms: _200  and  _202
REMARK   83  A    between atoms: _202  and  _203
REMARK   84  A    between atoms: _202  and  _205
REMARK   85  A    between atoms: _205  and  _206
REMARK   86  A    between atoms: _209  and  _211
REMARK   87  A    between atoms: _211  and  _212
REMARK   88  A    between atoms: _214  and  _216
REMARK   89  A    between atoms: _216  and  _217
REMARK   90  A    between atoms: _216  and  _219
REMARK   91  A    between atoms: _222  and  _224
REMARK   92  A    between atoms: _224  and  _225
REMARK   93  A    between atoms: _224  and  _227
REMARK   94  A    between atoms: _227  and  _228
REMARK   95  A    between atoms: _230  and  _232
REMARK   96  A    between atoms: _232  and  _233
REMARK   97  A    between atoms: _235  and  _237
REMARK   98  A    between atoms: _237  and  _238
REMARK   99  A    between atoms: _241  and  _243
REMARK  100  A    between atoms: _243  and  _244
REMARK  101  A    between atoms: _243  and  _246
REMARK  102  A    between atoms: _249  and  _251
REMARK  103  A    between atoms: _251  and  _252
REMARK  104  A    between atoms: _251  and  _254
REMARK  105  A    between atoms: _254  and  _255
REMARK  106  A    between atoms: _255  and  _256
REMARK  107  A    between atoms: _256  and  _257
REMARK  108  A    between atoms: _257  and  _258
REMARK  109  A    between atoms: _262  and  _264
REMARK  110  A    between atoms: _264  and  _265
REMARK  111  A    between atoms: _264  and  _267
REMARK  112  A    between atoms: _267  and  _268
REMARK  113  A    between atoms: _271  and  _273
REMARK  114  A    between atoms: _273  and  _274
REMARK  115  A    between atoms: _276  and  _278
REMARK  116  A    between atoms: _278  and  _279
REMARK  117  A    between atoms: _282  and  _284
REMARK  118  A    between atoms: _284  and  _285
REMARK  119  A    between atoms: _284  and  _287
REMARK  120  A    between atoms: _287  and  _288
REMARK  121  A    between atoms: _291  and  _293
REMARK  122  A    between atoms: _293  and  _294
REMARK  123  A    between atoms: _293  and  _296
REMARK  124  A    between atoms: _296  and  _297
REMARK  125  A    between atoms: _297  and  _298
REMARK  126  A    between atoms: _300  and  _302
REMARK  127  A    between atoms: _302  and  _303
REMARK  128  A    between atoms: _302  and  _305
REMARK  129  A    between atoms: _305  and  _306
REMARK  130  A    between atoms: _309  and  _311
REMARK  131  A    between atoms: _311  and  _312
REMARK  132  A    between atoms: _311  and  _314
REMARK  133  A    between atoms: _314  and  _315
REMARK  134  A    between atoms: _321  and  _323
REMARK  135  A    between atoms: _323  and  _324
REMARK  136  A    between atoms: _323  and  _326
REMARK  137  A    between atoms: _329  and  _331
REMARK  138  A    between atoms: _331  and  _332
REMARK  139  A    between atoms: _331  and  _334
REMARK  140  A    between atoms: _334  and  _335
REMARK  141  A    between atoms: _335  and  _336
REMARK  142  A    between atoms: _336  and  _337
REMARK  143  A    between atoms: _337  and  _338
REMARK  144  A    between atoms: _342  and  _344
REMARK  145  A    between atoms: _344  and  _345
REMARK  146  A    between atoms: _344  and  _347
REMARK  147  A    between atoms: _347  and  _348
REMARK  148  A    between atoms: _353  and  _355
REMARK  149  A    between atoms: _355  and  _356
REMARK  150  A    between atoms: _355  and  _358
REMARK  151  A    between atoms: _358  and  _359
REMARK  152  A    between atoms: _364  and  _366
REMARK  153  A    between atoms: _366  and  _367
REMARK  154  A    between atoms: _366  and  _369
REMARK  155  A    between atoms: _369  and  _370
REMARK  156  A    between atoms: _370  and  _371
REMARK  157  A    between atoms: _374  and  _376
REMARK  158  A    between atoms: _376  and  _377
REMARK  159  A    between atoms: _376  and  _379
REMARK  160  A    between atoms: _379  and  _380
REMARK  161  A    between atoms: _383  and  _385
REMARK  162  A    between atoms: _385  and  _386
REMARK  163  A    between atoms: _385  and  _388
REMARK  164  A    between atoms: _388  and  _389
REMARK  165  A    between atoms: _392  and  _394
REMARK  166  A    between atoms: _394  and  _395
REMARK  167  A    between atoms: _394  and  _397
REMARK  168  A    between atoms: _397  and  _398
REMARK  169  A    between atoms: _401  and  _403
REMARK  170  A    between atoms: _403  and  _404
REMARK  171  A    between atoms: _403  and  _406
REMARK  172  A    between atoms: _406  and  _407
REMARK  173  A    between atoms: _407  and  _408
REMARK  174  A    between atoms: _410  and  _412
REMARK  175  A    between atoms: _412  and  _413
REMARK  176  A    between atoms: _412  and  _415
REMARK  177  A    between atoms: _415  and  _416
REMARK  178  A    between atoms: _416  and  _417
REMARK  179  A    between atoms: _420  and  _422
REMARK  180  A    between atoms: _422  and  _423
REMARK  181  A    between atoms: _422  and  _425
REMARK  182  A    between atoms: _425  and  _426
REMARK  183  A    between atoms: _428  and  _430
REMARK  184  A    between atoms: _430  and  _431
REMARK  185  A    between atoms: _430  and  _433
REMARK  186  A    between atoms: _433  and  _434
REMARK  187  A    between atoms: _437  and  _439
REMARK  188  A    between atoms: _439  and  _440
REMARK  189  A    between atoms: _439  and  _442
REMARK  190  A    between atoms: _442  and  _443
REMARK  191  A    between atoms: _446  and  _448
REMARK  192  A    between atoms: _448  and  _449
REMARK  193  A    between atoms: _448  and  _451
REMARK  194  A    between atoms: _451  and  _452
REMARK  195  A    between atoms: _455  and  _457
REMARK  196  A    between atoms: _457  and  _458
REMARK  197  A    between atoms: _457  and  _460
REMARK  198  A    between atoms: _460  and  _461
REMARK  199  A    between atoms: _464  and  _466
REMARK  200  A    between atoms: _466  and  _467
REMARK  201  A    between atoms: _466  and  _469
REMARK  202  A    between atoms: _469  and  _470
REMARK  203  A    between atoms: _470  and  _471
REMARK  204  A    between atoms: _471  and  _472
REMARK  205  A    between atoms: _472  and  _473
REMARK  206  A    between atoms: _477  and  _479
REMARK  207  A    between atoms: _479  and  _480
REMARK  208  A    between atoms: _482  and  _484
REMARK  209  A    between atoms: _484  and  _485
REMARK  210  A    between atoms: _484  and  _487
REMARK  211  A    between atoms: _487  and  _488
REMARK  212  A    between atoms: _493  and  _494
REMARK  213  A    between atoms: _496  and  _498
REMARK  214  A    between atoms: _498  and  _499
REMARK  215  A    between atoms: _501  and  _503
REMARK  216  A    between atoms: _503  and  _504
REMARK  217  A    between atoms: _503  and  _506
REMARK  218  A    between atoms: _506  and  _507
REMARK                            x       y       z     vdW  Elec       q    Type
REMARK                         _______ _______ _______ _____ _____    ______ ____
ROOT
ATOM      1  O   HOH     1       6.823  25.219  14.925  0.00  0.00    +0.000 OA
ENDROOT
TORSDOF 0
REMARK  Name = ../refined-set-2016/4nwc/4nwc_pocket.pdb
REMARK  218 active torsions:
REMARK  status: ('A' for Active; 'I' for Inactive)
REMARK    1  A    between atoms: _1  and  _3
REMARK    2  A    between atoms: _3  and  _4
REMARK    3  A    between atoms: _3  and  _6
REMARK    4  A    between atoms: _6  and  _7
REMARK    5  A    between atoms: _10  and  _12
REMARK    6  A    between atoms: _12  and  _13
REMARK    7  A    between atoms: _12  and  _15
REMARK    8  A    between atoms: _15  and  _16
REMARK    9  A    between atoms: _19  and  _21
REMARK   10  A    between atoms: _21  and  _22
REMARK   11  A    between atoms: _21  and  _24
REMARK   12  A    between atoms: _24  and  _25
REMARK   13  A    between atoms: _25  and  _26
REMARK   14  A    between atoms: _29  and  _31
REMARK   15  A    between atoms: _31  and  _32
REMARK   16  A    between atoms: _31  and  _34
REMARK   17  A    between atoms: _34  and  _35
REMARK   18  A    between atoms: _35  and  _36
REMARK   19  A    between atoms: _40  and  _41
REMARK   20  A    between atoms: _46  and  _48
REMARK   21  A    between atoms: _48  and  _49
REMARK   22  A    between atoms: _48  and  _51
REMARK   23  A    between atoms: _51  and  _52
REMARK   24  A    between atoms: _58  and  _60
REMARK   25  A    between atoms: _60  and  _61
REMARK   26  A    between atoms: _60  and  _63
REMARK   27  A    between atoms: _63  and  _64
REMARK   28  A    between atoms: _64  and  _65
REMARK   29  A    between atoms: _65  and  _66
REMARK   30  A    between atoms: _66  and  _67
REMARK   31  A    between atoms: _71  and  _73
REMARK   32  A    between atoms: _73  and  _74
REMARK   33  A    between atoms: _73  and  _76
REMARK   34  A    between atoms: _76  and  _77
REMARK   35  A    between atoms: _82  and  _83
REMARK   36  A    between atoms: _85  and  _87
REMARK   37  A    between atoms: _87  and  _88
REMARK   38  A    between atoms: _90  and  _92
REMARK   39  A    between atoms: _92  and  _93
REMARK   40  A    between atoms: _96  and  _98
REMARK   41  A    between atoms: _98  and  _99
REMARK   42  A    between atoms: _98  and  _101
REMARK   43  A    between atoms: _101  and  _102
REMARK   44  A    between atoms: _102  and  _103
REMARK   45  A    between atoms: _105  and  _107
REMARK   46  A    between atoms: _107  and  _108
REMARK   47  A    between atoms: _107  and  _110
REMARK   48  A    between atoms: _113  and  _115
REMARK   49  A    between atoms: _115  and  _116
REMARK   50  A    between atoms: _120  and  _121
REMARK   51  A    between atoms: _126  and  _128
REMARK   52  A    between atoms: _128  and  _129
REMARK   53  A    between atoms: _128  and  _131
REMARK   54  A    between atoms: _131  and  _132
REMARK   55  A    between atoms: _135  and  _137
REMARK   56  A    between atoms: _137  and  _138
REMARK   57  A    between atoms: _137  and  _140
REMARK   58  A    between atoms: _140  and  _141
REMARK   59  A    between atoms: _144  and  _146
REMARK   60  A    between atoms: _146  and  _147
REMARK   61  A    between atoms: _146  and  _149
REMARK   62  A    between atoms: _149  and  _150
REMARK   63  A    between atoms: _153  and  _155
REMARK   64  A    between atoms: _155  and  _156
REMARK   65  A    between atoms: _155  and  _158
REMARK   66  A    between atoms: _158  and  _159
REMARK   67  A    between atoms: _162  and  _164
REMARK   68  A    between atoms: _164  and  _165
REMARK   69  A    between atoms: _164  and  _167
REMARK   70  A    between atoms: _167  and  _168
REMARK   71  A    between atoms: _168  and  _169
REMARK   72  A    between atoms: _169  and  _170
REMARK   73  A    between atoms: _179  and  _181
REMARK   74  A    between atoms: _181  and  _182
REMARK   75  A    between atoms: _181  and  _184
REMARK   76  A    between atoms: _184  and  _185
REMARK   77  A    between atoms: _191  and  _193
REMARK   78  A    between atoms: _193  and  _194
REMARK   79  A    between atoms: _193  and  _196
REMARK   80  A    between atoms: _196  and  _197
REMARK   81  A    between atoms: _197  and  _198
REMARK   82  A    between atoms: _200  and  _202
REMARK   83  A    between atoms: _202  and  _203
REMARK   84  A    between atoms: _202  and  _205
REMARK   85  A    between atoms: _205  and  _206
REMARK   86  A    between atoms: _209  and  _211
REMARK   87  A    between atoms: _211  and  _212
REMARK   88  A    between atoms: _214  and  _216
REMARK   89  A    between atoms: _216  and  _217
REMARK   90  A    between atoms: _216  and  _219
REMARK   91  A    between atoms: _222  and  _224
REMARK   92  A    between atoms: _224  and  _225
REMARK   93  A    between atoms: _224  and  _227
REMARK   94  A    between atoms: _227  and  _228
REMARK   95  A    between atoms: _230  and  _232
REMARK   96  A    between atoms: _232  and  _233
REMARK   97  A    between atoms: _235  and  _237
REMARK   98  A    between atoms: _237  and  _238
REMARK   99  A    between atoms: _241  and  _243
REMARK  100  A    between atoms: _243  and  _244
REMARK  101  A    between atoms: _243  and  _246
REMARK  102  A    between atoms: _249  and  _251
REMARK  103  A    between atoms: _251  and  _252
REMARK  104  A    between atoms: _251  and  _254
REMARK  105  A    between atoms: _254  and  _255
REMARK  106  A    between atoms: _255  and  _256
REMARK  107  A    between atoms: _256  and  _257
REMARK  108  A    between atoms: _257  and  _258
REMARK  109  A    between atoms: _262  and  _264
REMARK  110  A    between atoms: _264  and  _265
REMARK  111  A    between atoms: _264  and  _267
REMARK  112  A    between atoms: _267  and  _268
REMARK  113  A    between atoms: _271  and  _273
REMARK  114  A    between atoms: _273  and  _274
REMARK  115  A    between atoms: _276  and  _278
REMARK  116  A    between atoms: _278  and  _279
REMARK  117  A    between atoms: _282  and  _284
REMARK  118  A    between atoms: _284  and  _285
REMARK  119  A    between atoms: _284  and  _287
REMARK  120  A    between atoms: _287  and  _288
REMARK  121  A    between atoms: _291  and  _293
REMARK  122  A    between atoms: _293  and  _294
REMARK  123  A    between atoms: _293  and  _296
REMARK  124  A    between atoms: _296  and  _297
REMARK  125  A    between atoms: _297  and  _298
REMARK  126  A    between atoms: _300  and  _302
REMARK  127  A    between atoms: _302  and  _303
REMARK  128  A    between atoms: _302  and  _305
REMARK  129  A    between atoms: _305  and  _306
REMARK  130  A    between atoms: _309  and  _311
REMARK  131  A    between atoms: _311  and  _312
REMARK  132  A    between atoms: _311  and  _314
REMARK  133  A    between atoms: _314  and  _315
REMARK  134  A    between atoms: _321  and  _323
REMARK  135  A    between atoms: _323  and  _324
REMARK  136  A    between atoms: _323  and  _326
REMARK  137  A    between atoms: _329  and  _331
REMARK  138  A    between atoms: _331  and  _332
REMARK  139  A    between atoms: _331  and  _334
REMARK  140  A    between atoms: _334  and  _335
REMARK  141  A    between atoms: _335  and  _336
REMARK  142  A    between atoms: _336  and  _337
REMARK  143  A    between atoms: _337  and  _338
REMARK  144  A    between atoms: _342  and  _344
REMARK  145  A    between atoms: _344  and  _345
REMARK  146  A    between atoms: _344  and  _347
REMARK  147  A    between atoms: _347  and  _348
REMARK  148  A    between atoms: _353  and  _355
REMARK  149  A    between atoms: _355  and  _356
REMARK  150  A    between atoms: _355  and  _358
REMARK  151  A    between atoms: _358  and  _359
REMARK  152  A    between atoms: _364  and  _366
REMARK  153  A    between atoms: _366  and  _367
REMARK  154  A    between atoms: _366  and  _369
REMARK  155  A    between atoms: _369  and  _370
REMARK  156  A    between atoms: _370  and  _371
REMARK  157  A    between atoms: _374  and  _376
REMARK  158  A    between atoms: _376  and  _377
REMARK  159  A    between atoms: _376  and  _379
REMARK  160  A    between atoms: _379  and  _380
REMARK  161  A    between atoms: _383  and  _385
REMARK  162  A    between atoms: _385  and  _386
REMARK  163  A    between atoms: _385  and  _388
REMARK  164  A    between atoms: _388  and  _389
REMARK  165  A    between atoms: _392  and  _394
REMARK  166  A    between atoms: _394  and  _395
REMARK  167  A    between atoms: _394  and  _397
REMARK  168  A    between atoms: _397  and  _398
REMARK  169  A    between atoms: _401  and  _403
REMARK  170  A    between atoms: _403  and  _404
REMARK  171  A    between atoms: _403  and  _406
REMARK  172  A    between atoms: _406  and  _407
REMARK  173  A    between atoms: _407  and  _408
REMARK  174  A    between atoms: _410  and  _412
REMARK  175  A    between atoms: _412  and  _413
REMARK  176  A    between atoms: _412  and  _415
REMARK  177  A    between atoms: _415  and  _416
REMARK  178  A    between atoms: _416  and  _417
REMARK  179  A    between atoms: _420  and  _422
REMARK  180  A    between atoms: _422  and  _423
REMARK  181  A    between atoms: _422  and  _425
REMARK  182  A    between atoms: _425  and  _426
REMARK  183  A    between atoms: _428  and  _430
REMARK  184  A    between atoms: _430  and  _431
REMARK  185  A    between atoms: _430  and  _433
REMARK  186  A    between atoms: _433  and  _434
REMARK  187  A    between atoms: _437  and  _439
REMARK  188  A    between atoms: _439  and  _440
REMARK  189  A    between atoms: _439  and  _442
REMARK  190  A    between atoms: _442  and  _443
REMARK  191  A    between atoms: _446  and  _448
REMARK  192  A    between atoms: _448  and  _449
REMARK  193  A    between atoms: _448  and  _451
REMARK  194  A    between atoms: _451  and  _452
REMARK  195  A    between atoms: _455  and  _457
REMARK  196  A    between atoms: _457  and  _458
REMARK  197  A    between atoms: _457  and  _460
REMARK  198  A    between atoms: _460  and  _461
REMARK  199  A    between atoms: _464  and  _466
REMARK  200  A    between atoms: _466  and  _467
REMARK  201  A    between atoms: _466  and  _469
REMARK  202  A    between atoms: _469  and  _470
REMARK  203  A    between atoms: _470  and  _471
REMARK  204  A    between atoms: _471  and  _472
REMARK  205  A    between atoms: _472  and  _473
REMARK  206  A    between atoms: _477  and  _479
REMARK  207  A    between atoms: _479  and  _480
REMARK  208  A    between atoms: _482  and  _484
REMARK  209  A    between atoms: _484  and  _485
REMARK  210  A    between atoms: _484  and  _487
REMARK  211  A    between atoms: _487  and  _488
REMARK  212  A    between atoms: _493  and  _494
REMARK  213  A    between atoms: _496  and  _498
REMARK  214  A    between atoms: _498  and  _499
REMARK  215  A    between atoms: _501  and  _503
REMARK  216  A    between atoms: _503  and  _504
REMARK  217  A    between atoms: _503  and  _506
REMARK  218  A    between atoms: _506  and  _507
REMARK                            x       y       z     vdW  Elec       q    Type
REMARK                         _______ _______ _______ _____ _____    ______ ____
ROOT
ATOM      1  O   HOH     1      -2.656  29.741   9.160  0.00  0.00    +0.000 OA
ENDROOT
TORSDOF 0
REMARK  Name = ../refined-set-2016/4nwc/4nwc_pocket.pdb
REMARK  218 active torsions:
REMARK  status: ('A' for Active; 'I' for Inactive)
REMARK    1  A    between atoms: _1  and  _3
REMARK    2  A    between atoms: _3  and  _4
REMARK    3  A    between atoms: _3  and  _6
REMARK    4  A    between atoms: _6  and  _7
REMARK    5  A    between atoms: _10  and  _12
REMARK    6  A    between atoms: _12  and  _13
REMARK    7  A    between atoms: _12  and  _15
REMARK    8  A    between atoms: _15  and  _16
REMARK    9  A    between atoms: _19  and  _21
REMARK   10  A    between atoms: _21  and  _22
REMARK   11  A    between atoms: _21  and  _24
REMARK   12  A    between atoms: _24  and  _25
REMARK   13  A    between atoms: _25  and  _26
REMARK   14  A    between atoms: _29  and  _31
REMARK   15  A    between atoms: _31  and  _32
REMARK   16  A    between atoms: _31  and  _34
REMARK   17  A    between atoms: _34  and  _35
REMARK   18  A    between atoms: _35  and  _36
REMARK   19  A    between atoms: _40  and  _41
REMARK   20  A    between atoms: _46  and  _48
REMARK   21  A    between atoms: _48  and  _49
REMARK   22  A    between atoms: _48  and  _51
REMARK   23  A    between atoms: _51  and  _52
REMARK   24  A    between atoms: _58  and  _60
REMARK   25  A    between atoms: _60  and  _61
REMARK   26  A    between atoms: _60  and  _63
REMARK   27  A    between atoms: _63  and  _64
REMARK   28  A    between atoms: _64  and  _65
REMARK   29  A    between atoms: _65  and  _66
REMARK   30  A    between atoms: _66  and  _67
REMARK   31  A    between atoms: _71  and  _73
REMARK   32  A    between atoms: _73  and  _74
REMARK   33  A    between atoms: _73  and  _76
REMARK   34  A    between atoms: _76  and  _77
REMARK   35  A    between atoms: _82  and  _83
REMARK   36  A    between atoms: _85  and  _87
REMARK   37  A    between atoms: _87  and  _88
REMARK   38  A    between atoms: _90  and  _92
REMARK   39  A    between atoms: _92  and  _93
REMARK   40  A    between atoms: _96  and  _98
REMARK   41  A    between atoms: _98  and  _99
REMARK   42  A    between atoms: _98  and  _101
REMARK   43  A    between atoms: _101  and  _102
REMARK   44  A    between atoms: _102  and  _103
REMARK   45  A    between atoms: _105  and  _107
REMARK   46  A    between atoms: _107  and  _108
REMARK   47  A    between atoms: _107  and  _110
REMARK   48  A    between atoms: _113  and  _115
REMARK   49  A    between atoms: _115  and  _116
REMARK   50  A    between atoms: _120  and  _121
REMARK   51  A    between atoms: _126  and  _128
REMARK   52  A    between atoms: _128  and  _129
REMARK   53  A    between atoms: _128  and  _131
REMARK   54  A    between atoms: _131  and  _132
REMARK   55  A    between atoms: _135  and  _137
REMARK   56  A    between atoms: _137  and  _138
REMARK   57  A    between atoms: _137  and  _140
REMARK   58  A    between atoms: _140  and  _141
REMARK   59  A    between atoms: _144  and  _146
REMARK   60  A    between atoms: _146  and  _147
REMARK   61  A    between atoms: _146  and  _149
REMARK   62  A    between atoms: _149  and  _150
REMARK   63  A    between atoms: _153  and  _155
REMARK   64  A    between atoms: _155  and  _156
REMARK   65  A    between atoms: _155  and  _158
REMARK   66  A    between atoms: _158  and  _159
REMARK   67  A    between atoms: _162  and  _164
REMARK   68  A    between atoms: _164  and  _165
REMARK   69  A    between atoms: _164  and  _167
REMARK   70  A    between atoms: _167  and  _168
REMARK   71  A    between atoms: _168  and  _169
REMARK   72  A    between atoms: _169  and  _170
REMARK   73  A    between atoms: _179  and  _181
REMARK   74  A    between atoms: _181  and  _182
REMARK   75  A    between atoms: _181  and  _184
REMARK   76  A    between atoms: _184  and  _185
REMARK   77  A    between atoms: _191  and  _193
REMARK   78  A    between atoms: _193  and  _194
REMARK   79  A    between atoms: _193  and  _196
REMARK   80  A    between atoms: _196  and  _197
REMARK   81  A    between atoms: _197  and  _198
REMARK   82  A    between atoms: _200  and  _202
REMARK   83  A    between atoms: _202  and  _203
REMARK   84  A    between atoms: _202  and  _205
REMARK   85  A    between atoms: _205  and  _206
REMARK   86  A    between atoms: _209  and  _211
REMARK   87  A    between atoms: _211  and  _212
REMARK   88  A    between atoms: _214  and  _216
REMARK   89  A    between atoms: _216  and  _217
REMARK   90  A    between atoms: _216  and  _219
REMARK   91  A    between atoms: _222  and  _224
REMARK   92  A    between atoms: _224  and  _225
REMARK   93  A    between atoms: _224  and  _227
REMARK   94  A    between atoms: _227  and  _228
REMARK   95  A    between atoms: _230  and  _232
REMARK   96  A    between atoms: _232  and  _233
REMARK   97  A    between atoms: _235  and  _237
REMARK   98  A    between atoms: _237  and  _238
REMARK   99  A    between atoms: _241  and  _243
REMARK  100  A    between atoms: _243  and  _244
REMARK  101  A    between atoms: _243  and  _246
REMARK  102  A    between atoms: _249  and  _251
REMARK  103  A    between atoms: _251  and  _252
REMARK  104  A    between atoms: _251  and  _254
REMARK  105  A    between atoms: _254  and  _255
REMARK  106  A    between atoms: _255  and  _256
REMARK  107  A    between atoms: _256  and  _257
REMARK  108  A    between atoms: _257  and  _258
REMARK  109  A    between atoms: _262  and  _264
REMARK  110  A    between atoms: _264  and  _265
REMARK  111  A    between atoms: _264  and  _267
REMARK  112  A    between atoms: _267  and  _268
REMARK  113  A    between atoms: _271  and  _273
REMARK  114  A    between atoms: _273  and  _274
REMARK  115  A    between atoms: _276  and  _278
REMARK  116  A    between atoms: _278  and  _279
REMARK  117  A    between atoms: _282  and  _284
REMARK  118  A    between atoms: _284  and  _285
REMARK  119  A    between atoms: _284  and  _287
REMARK  120  A    between atoms: _287  and  _288
REMARK  121  A    between atoms: _291  and  _293
REMARK  122  A    between atoms: _293  and  _294
REMARK  123  A    between atoms: _293  and  _296
REMARK  124  A    between atoms: _296  and  _297
REMARK  125  A    between atoms: _297  and  _298
REMARK  126  A    between atoms: _300  and  _302
REMARK  127  A    between atoms: _302  and  _303
REMARK  128  A    between atoms: _302  and  _305
REMARK  129  A    between atoms: _305  and  _306
REMARK  130  A    between atoms: _309  and  _311
REMARK  131  A    between atoms: _311  and  _312
REMARK  132  A    between atoms: _311  and  _314
REMARK  133  A    between atoms: _314  and  _315
REMARK  134  A    between atoms: _321  and  _323
REMARK  135  A    between atoms: _323  and  _324
REMARK  136  A    between atoms: _323  and  _326
REMARK  137  A    between atoms: _329  and  _331
REMARK  138  A    between atoms: _331  and  _332
REMARK  139  A    between atoms: _331  and  _334
REMARK  140  A    between atoms: _334  and  _335
REMARK  141  A    between atoms: _335  and  _336
REMARK  142  A    between atoms: _336  and  _337
REMARK  143  A    between atoms: _337  and  _338
REMARK  144  A    between atoms: _342  and  _344
REMARK  145  A    between atoms: _344  and  _345
REMARK  146  A    between atoms: _344  and  _347
REMARK  147  A    between atoms: _347  and  _348
REMARK  148  A    between atoms: _353  and  _355
REMARK  149  A    between atoms: _355  and  _356
REMARK  150  A    between atoms: _355  and  _358
REMARK  151  A    between atoms: _358  and  _359
REMARK  152  A    between atoms: _364  and  _366
REMARK  153  A    between atoms: _366  and  _367
REMARK  154  A    between atoms: _366  and  _369
REMARK  155  A    between atoms: _369  and  _370
REMARK  156  A    between atoms: _370  and  _371
REMARK  157  A    between atoms: _374  and  _376
REMARK  158  A    between atoms: _376  and  _377
REMARK  159  A    between atoms: _376  and  _379
REMARK  160  A    between atoms: _379  and  _380
REMARK  161  A    between atoms: _383  and  _385
REMARK  162  A    between atoms: _385  and  _386
REMARK  163  A    between atoms: _385  and  _388
REMARK  164  A    between atoms: _388  and  _389
REMARK  165  A    between atoms: _392  and  _394
REMARK  166  A    between atoms: _394  and  _395
REMARK  167  A    between atoms: _394  and  _397
REMARK  168  A    between atoms: _397  and  _398
REMARK  169  A    between atoms: _401  and  _403
REMARK  170  A    between atoms: _403  and  _404
REMARK  171  A    between atoms: _403  and  _406
REMARK  172  A    between atoms: _406  and  _407
REMARK  173  A    between atoms: _407  and  _408
REMARK  174  A    between atoms: _410  and  _412
REMARK  175  A    between atoms: _412  and  _413
REMARK  176  A    between atoms: _412  and  _415
REMARK  177  A    between atoms: _415  and  _416
REMARK  178  A    between atoms: _416  and  _417
REMARK  179  A    between atoms: _420  and  _422
REMARK  180  A    between atoms: _422  and  _423
REMARK  181  A    between atoms: _422  and  _425
REMARK  182  A    between atoms: _425  and  _426
REMARK  183  A    between atoms: _428  and  _430
REMARK  184  A    between atoms: _430  and  _431
REMARK  185  A    between atoms: _430  and  _433
REMARK  186  A    between atoms: _433  and  _434
REMARK  187  A    between atoms: _437  and  _439
REMARK  188  A    between atoms: _439  and  _440
REMARK  189  A    between atoms: _439  and  _442
REMARK  190  A    between atoms: _442  and  _443
REMARK  191  A    between atoms: _446  and  _448
REMARK  192  A    between atoms: _448  and  _449
REMARK  193  A    between atoms: _448  and  _451
REMARK  194  A    between atoms: _451  and  _452
REMARK  195  A    between atoms: _455  and  _457
REMARK  196  A    between atoms: _457  and  _458
REMARK  197  A    between atoms: _457  and  _460
REMARK  198  A    between atoms: _460  and  _461
REMARK  199  A    between atoms: _464  and  _466
REMARK  200  A    between atoms: _466  and  _467
REMARK  201  A    between atoms: _466  and  _469
REMARK  202  A    between atoms: _469  and  _470
REMARK  203  A    between atoms: _470  and  _471
REMARK  204  A    between atoms: _471  and  _472
REMARK  205  A    between atoms: _472  and  _473
REMARK  206  A    between atoms: _477  and  _479
REMARK  207  A    between atoms: _479  and  _480
REMARK  208  A    between atoms: _482  and  _484
REMARK  209  A    between atoms: _484  and  _485
REMARK  210  A    between atoms: _484  and  _487
REMARK  211  A    between atoms: _487  and  _488
REMARK  212  A    between atoms: _493  and  _494
REMARK  213  A    between atoms: _496  and  _498
REMARK  214  A    between atoms: _498  and  _499
REMARK  215  A    between atoms: _501  and  _503
REMARK  216  A    between atoms: _503  and  _504
REMARK  217  A    between atoms: _503  and  _506
REMARK  218  A    between atoms: _506  and  _507
REMARK                            x       y       z     vdW  Elec       q    Type
REMARK                         _______ _______ _______ _____ _____    ______ ____
ROOT
ATOM      1  O   HOH     1       0.472  24.786  15.186  0.00  0.00    +0.000 OA
ENDROOT
TORSDOF 0
REMARK  Name = ../refined-set-2016/4nwc/4nwc_pocket.pdb
REMARK  218 active torsions:
REMARK  status: ('A' for Active; 'I' for Inactive)
REMARK    1  A    between atoms: _1  and  _3
REMARK    2  A    between atoms: _3  and  _4
REMARK    3  A    between atoms: _3  and  _6
REMARK    4  A    between atoms: _6  and  _7
REMARK    5  A    between atoms: _10  and  _12
REMARK    6  A    between atoms: _12  and  _13
REMARK    7  A    between atoms: _12  and  _15
REMARK    8  A    between atoms: _15  and  _16
REMARK    9  A    between atoms: _19  and  _21
REMARK   10  A    between atoms: _21  and  _22
REMARK   11  A    between atoms: _21  and  _24
REMARK   12  A    between atoms: _24  and  _25
REMARK   13  A    between atoms: _25  and  _26
REMARK   14  A    between atoms: _29  and  _31
REMARK   15  A    between atoms: _31  and  _32
REMARK   16  A    between atoms: _31  and  _34
REMARK   17  A    between atoms: _34  and  _35
REMARK   18  A    between atoms: _35  and  _36
REMARK   19  A    between atoms: _40  and  _41
REMARK   20  A    between atoms: _46  and  _48
REMARK   21  A    between atoms: _48  and  _49
REMARK   22  A    between atoms: _48  and  _51
REMARK   23  A    between atoms: _51  and  _52
REMARK   24  A    between atoms: _58  and  _60
REMARK   25  A    between atoms: _60  and  _61
REMARK   26  A    between atoms: _60  and  _63
REMARK   27  A    between atoms: _63  and  _64
REMARK   28  A    between atoms: _64  and  _65
REMARK   29  A    between atoms: _65  and  _66
REMARK   30  A    between atoms: _66  and  _67
REMARK   31  A    between atoms: _71  and  _73
REMARK   32  A    between atoms: _73  and  _74
REMARK   33  A    between atoms: _73  and  _76
REMARK   34  A    between atoms: _76  and  _77
REMARK   35  A    between atoms: _82  and  _83
REMARK   36  A    between atoms: _85  and  _87
REMARK   37  A    between atoms: _87  and  _88
REMARK   38  A    between atoms: _90  and  _92
REMARK   39  A    between atoms: _92  and  _93
REMARK   40  A    between atoms: _96  and  _98
REMARK   41  A    between atoms: _98  and  _99
REMARK   42  A    between atoms: _98  and  _101
REMARK   43  A    between atoms: _101  and  _102
REMARK   44  A    between atoms: _102  and  _103
REMARK   45  A    between atoms: _105  and  _107
REMARK   46  A    between atoms: _107  and  _108
REMARK   47  A    between atoms: _107  and  _110
REMARK   48  A    between atoms: _113  and  _115
REMARK   49  A    between atoms: _115  and  _116
REMARK   50  A    between atoms: _120  and  _121
REMARK   51  A    between atoms: _126  and  _128
REMARK   52  A    between atoms: _128  and  _129
REMARK   53  A    between atoms: _128  and  _131
REMARK   54  A    between atoms: _131  and  _132
REMARK   55  A    between atoms: _135  and  _137
REMARK   56  A    between atoms: _137  and  _138
REMARK   57  A    between atoms: _137  and  _140
REMARK   58  A    between atoms: _140  and  _141
REMARK   59  A    between atoms: _144  and  _146
REMARK   60  A    between atoms: _146  and  _147
REMARK   61  A    between atoms: _146  and  _149
REMARK   62  A    between atoms: _149  and  _150
REMARK   63  A    between atoms: _153  and  _155
REMARK   64  A    between atoms: _155  and  _156
REMARK   65  A    between atoms: _155  and  _158
REMARK   66  A    between atoms: _158  and  _159
REMARK   67  A    between atoms: _162  and  _164
REMARK   68  A    between atoms: _164  and  _165
REMARK   69  A    between atoms: _164  and  _167
REMARK   70  A    between atoms: _167  and  _168
REMARK   71  A    between atoms: _168  and  _169
REMARK   72  A    between atoms: _169  and  _170
REMARK   73  A    between atoms: _179  and  _181
REMARK   74  A    between atoms: _181  and  _182
REMARK   75  A    between atoms: _181  and  _184
REMARK   76  A    between atoms: _184  and  _185
REMARK   77  A    between atoms: _191  and  _193
REMARK   78  A    between atoms: _193  and  _194
REMARK   79  A    between atoms: _193  and  _196
REMARK   80  A    between atoms: _196  and  _197
REMARK   81  A    between atoms: _197  and  _198
REMARK   82  A    between atoms: _200  and  _202
REMARK   83  A    between atoms: _202  and  _203
REMARK   84  A    between atoms: _202  and  _205
REMARK   85  A    between atoms: _205  and  _206
REMARK   86  A    between atoms: _209  and  _211
REMARK   87  A    between atoms: _211  and  _212
REMARK   88  A    between atoms: _214  and  _216
REMARK   89  A    between atoms: _216  and  _217
REMARK   90  A    between atoms: _216  and  _219
REMARK   91  A    between atoms: _222  and  _224
REMARK   92  A    between atoms: _224  and  _225
REMARK   93  A    between atoms: _224  and  _227
REMARK   94  A    between atoms: _227  and  _228
REMARK   95  A    between atoms: _230  and  _232
REMARK   96  A    between atoms: _232  and  _233
REMARK   97  A    between atoms: _235  and  _237
REMARK   98  A    between atoms: _237  and  _238
REMARK   99  A    between atoms: _241  and  _243
REMARK  100  A    between atoms: _243  and  _244
REMARK  101  A    between atoms: _243  and  _246
REMARK  102  A    between atoms: _249  and  _251
REMARK  103  A    between atoms: _251  and  _252
REMARK  104  A    between atoms: _251  and  _254
REMARK  105  A    between atoms: _254  and  _255
REMARK  106  A    between atoms: _255  and  _256
REMARK  107  A    between atoms: _256  and  _257
REMARK  108  A    between atoms: _257  and  _258
REMARK  109  A    between atoms: _262  and  _264
REMARK  110  A    between atoms: _264  and  _265
REMARK  111  A    between atoms: _264  and  _267
REMARK  112  A    between atoms: _267  and  _268
REMARK  113  A    between atoms: _271  and  _273
REMARK  114  A    between atoms: _273  and  _274
REMARK  115  A    between atoms: _276  and  _278
REMARK  116  A    between atoms: _278  and  _279
REMARK  117  A    between atoms: _282  and  _284
REMARK  118  A    between atoms: _284  and  _285
REMARK  119  A    between atoms: _284  and  _287
REMARK  120  A    between atoms: _287  and  _288
REMARK  121  A    between atoms: _291  and  _293
REMARK  122  A    between atoms: _293  and  _294
REMARK  123  A    between atoms: _293  and  _296
REMARK  124  A    between atoms: _296  and  _297
REMARK  125  A    between atoms: _297  and  _298
REMARK  126  A    between atoms: _300  and  _302
REMARK  127  A    between atoms: _302  and  _303
REMARK  128  A    between atoms: _302  and  _305
REMARK  129  A    between atoms: _305  and  _306
REMARK  130  A    between atoms: _309  and  _311
REMARK  131  A    between atoms: _311  and  _312
REMARK  132  A    between atoms: _311  and  _314
REMARK  133  A    between atoms: _314  and  _315
REMARK  134  A    between atoms: _321  and  _323
REMARK  135  A    between atoms: _323  and  _324
REMARK  136  A    between atoms: _323  and  _326
REMARK  137  A    between atoms: _329  and  _331
REMARK  138  A    between atoms: _331  and  _332
REMARK  139  A    between atoms: _331  and  _334
REMARK  140  A    between atoms: _334  and  _335
REMARK  141  A    between atoms: _335  and  _336
REMARK  142  A    between atoms: _336  and  _337
REMARK  143  A    between atoms: _337  and  _338
REMARK  144  A    between atoms: _342  and  _344
REMARK  145  A    between atoms: _344  and  _345
REMARK  146  A    between atoms: _344  and  _347
REMARK  147  A    between atoms: _347  and  _348
REMARK  148  A    between atoms: _353  and  _355
REMARK  149  A    between atoms: _355  and  _356
REMARK  150  A    between atoms: _355  and  _358
REMARK  151  A    between atoms: _358  and  _359
REMARK  152  A    between atoms: _364  and  _366
REMARK  153  A    between atoms: _366  and  _367
REMARK  154  A    between atoms: _366  and  _369
REMARK  155  A    between atoms: _369  and  _370
REMARK  156  A    between atoms: _370  and  _371
REMARK  157  A    between atoms: _374  and  _376
REMARK  158  A    between atoms: _376  and  _377
REMARK  159  A    between atoms: _376  and  _379
REMARK  160  A    between atoms: _379  and  _380
REMARK  161  A    between atoms: _383  and  _385
REMARK  162  A    between atoms: _385  and  _386
REMARK  163  A    between atoms: _385  and  _388
REMARK  164  A    between atoms: _388  and  _389
REMARK  165  A    between atoms: _392  and  _394
REMARK  166  A    between atoms: _394  and  _395
REMARK  167  A    between atoms: _394  and  _397
REMARK  168  A    between atoms: _397  and  _398
REMARK  169  A    between atoms: _401  and  _403
REMARK  170  A    between atoms: _403  and  _404
REMARK  171  A    between atoms: _403  and  _406
REMARK  172  A    between atoms: _406  and  _407
REMARK  173  A    between atoms: _407  and  _408
REMARK  174  A    between atoms: _410  and  _412
REMARK  175  A    between atoms: _412  and  _413
REMARK  176  A    between atoms: _412  and  _415
REMARK  177  A    between atoms: _415  and  _416
REMARK  178  A    between atoms: _416  and  _417
REMARK  179  A    between atoms: _420  and  _422
REMARK  180  A    between atoms: _422  and  _423
REMARK  181  A    between atoms: _422  and  _425
REMARK  182  A    between atoms: _425  and  _426
REMARK  183  A    between atoms: _428  and  _430
REMARK  184  A    between atoms: _430  and  _431
REMARK  185  A    between atoms: _430  and  _433
REMARK  186  A    between atoms: _433  and  _434
REMARK  187  A    between atoms: _437  and  _439
REMARK  188  A    between atoms: _439  and  _440
REMARK  189  A    between atoms: _439  and  _442
REMARK  190  A    between atoms: _442  and  _443
REMARK  191  A    between atoms: _446  and  _448
REMARK  192  A    between atoms: _448  and  _449
REMARK  193  A    between atoms: _448  and  _451
REMARK  194  A    between atoms: _451  and  _452
REMARK  195  A    between atoms: _455  and  _457
REMARK  196  A    between atoms: _457  and  _458
REMARK  197  A    between atoms: _457  and  _460
REMARK  198  A    between atoms: _460  and  _461
REMARK  199  A    between atoms: _464  and  _466
REMARK  200  A    between atoms: _466  and  _467
REMARK  201  A    between atoms: _466  and  _469
REMARK  202  A    between atoms: _469  and  _470
REMARK  203  A    between atoms: _470  and  _471
REMARK  204  A    between atoms: _471  and  _472
REMARK  205  A    between atoms: _472  and  _473
REMARK  206  A    between atoms: _477  and  _479
REMARK  207  A    between atoms: _479  and  _480
REMARK  208  A    between atoms: _482  and  _484
REMARK  209  A    between atoms: _484  and  _485
REMARK  210  A    between atoms: _484  and  _487
REMARK  211  A    between atoms: _487  and  _488
REMARK  212  A    between atoms: _493  and  _494
REMARK  213  A    between atoms: _496  and  _498
REMARK  214  A    between atoms: _498  and  _499
REMARK  215  A    between atoms: _501  and  _503
REMARK  216  A    between atoms: _503  and  _504
REMARK  217  A    between atoms: _503  and  _506
REMARK  218  A    between atoms: _506  and  _507
REMARK                            x       y       z     vdW  Elec       q    Type
REMARK                         _______ _______ _______ _____ _____    ______ ____
ROOT
ATOM      1  O   HOH     1       3.265  25.603   9.971  0.00  0.00    +0.000 OA
ENDROOT
TORSDOF 0
REMARK  Name = ../refined-set-2016/4nwc/4nwc_pocket.pdb
REMARK  218 active torsions:
REMARK  status: ('A' for Active; 'I' for Inactive)
REMARK    1  A    between atoms: _1  and  _3
REMARK    2  A    between atoms: _3  and  _4
REMARK    3  A    between atoms: _3  and  _6
REMARK    4  A    between atoms: _6  and  _7
REMARK    5  A    between atoms: _10  and  _12
REMARK    6  A    between atoms: _12  and  _13
REMARK    7  A    between atoms: _12  and  _15
REMARK    8  A    between atoms: _15  and  _16
REMARK    9  A    between atoms: _19  and  _21
REMARK   10  A    between atoms: _21  and  _22
REMARK   11  A    between atoms: _21  and  _24
REMARK   12  A    between atoms: _24  and  _25
REMARK   13  A    between atoms: _25  and  _26
REMARK   14  A    between atoms: _29  and  _31
REMARK   15  A    between atoms: _31  and  _32
REMARK   16  A    between atoms: _31  and  _34
REMARK   17  A    between atoms: _34  and  _35
REMARK   18  A    between atoms: _35  and  _36
REMARK   19  A    between atoms: _40  and  _41
REMARK   20  A    between atoms: _46  and  _48
REMARK   21  A    between atoms: _48  and  _49
REMARK   22  A    between atoms: _48  and  _51
REMARK   23  A    between atoms: _51  and  _52
REMARK   24  A    between atoms: _58  and  _60
REMARK   25  A    between atoms: _60  and  _61
REMARK   26  A    between atoms: _60  and  _63
REMARK   27  A    between atoms: _63  and  _64
REMARK   28  A    between atoms: _64  and  _65
REMARK   29  A    between atoms: _65  and  _66
REMARK   30  A    between atoms: _66  and  _67
REMARK   31  A    between atoms: _71  and  _73
REMARK   32  A    between atoms: _73  and  _74
REMARK   33  A    between atoms: _73  and  _76
REMARK   34  A    between atoms: _76  and  _77
REMARK   35  A    between atoms: _82  and  _83
REMARK   36  A    between atoms: _85  and  _87
REMARK   37  A    between atoms: _87  and  _88
REMARK   38  A    between atoms: _90  and  _92
REMARK   39  A    between atoms: _92  and  _93
REMARK   40  A    between atoms: _96  and  _98
REMARK   41  A    between atoms: _98  and  _99
REMARK   42  A    between atoms: _98  and  _101
REMARK   43  A    between atoms: _101  and  _102
REMARK   44  A    between atoms: _102  and  _103
REMARK   45  A    between atoms: _105  and  _107
REMARK   46  A    between atoms: _107  and  _108
REMARK   47  A    between atoms: _107  and  _110
REMARK   48  A    between atoms: _113  and  _115
REMARK   49  A    between atoms: _115  and  _116
REMARK   50  A    between atoms: _120  and  _121
REMARK   51  A    between atoms: _126  and  _128
REMARK   52  A    between atoms: _128  and  _129
REMARK   53  A    between atoms: _128  and  _131
REMARK   54  A    between atoms: _131  and  _132
REMARK   55  A    between atoms: _135  and  _137
REMARK   56  A    between atoms: _137  and  _138
REMARK   57  A    between atoms: _137  and  _140
REMARK   58  A    between atoms: _140  and  _141
REMARK   59  A    between atoms: _144  and  _146
REMARK   60  A    between atoms: _146  and  _147
REMARK   61  A    between atoms: _146  and  _149
REMARK   62  A    between atoms: _149  and  _150
REMARK   63  A    between atoms: _153  and  _155
REMARK   64  A    between atoms: _155  and  _156
REMARK   65  A    between atoms: _155  and  _158
REMARK   66  A    between atoms: _158  and  _159
REMARK   67  A    between atoms: _162  and  _164
REMARK   68  A    between atoms: _164  and  _165
REMARK   69  A    between atoms: _164  and  _167
REMARK   70  A    between atoms: _167  and  _168
REMARK   71  A    between atoms: _168  and  _169
REMARK   72  A    between atoms: _169  and  _170
REMARK   73  A    between atoms: _179  and  _181
REMARK   74  A    between atoms: _181  and  _182
REMARK   75  A    between atoms: _181  and  _184
REMARK   76  A    between atoms: _184  and  _185
REMARK   77  A    between atoms: _191  and  _193
REMARK   78  A    between atoms: _193  and  _194
REMARK   79  A    between atoms: _193  and  _196
REMARK   80  A    between atoms: _196  and  _197
REMARK   81  A    between atoms: _197  and  _198
REMARK   82  A    between atoms: _200  and  _202
REMARK   83  A    between atoms: _202  and  _203
REMARK   84  A    between atoms: _202  and  _205
REMARK   85  A    between atoms: _205  and  _206
REMARK   86  A    between atoms: _209  and  _211
REMARK   87  A    between atoms: _211  and  _212
REMARK   88  A    between atoms: _214  and  _216
REMARK   89  A    between atoms: _216  and  _217
REMARK   90  A    between atoms: _216  and  _219
REMARK   91  A    between atoms: _222  and  _224
REMARK   92  A    between atoms: _224  and  _225
REMARK   93  A    between atoms: _224  and  _227
REMARK   94  A    between atoms: _227  and  _228
REMARK   95  A    between atoms: _230  and  _232
REMARK   96  A    between atoms: _232  and  _233
REMARK   97  A    between atoms: _235  and  _237
REMARK   98  A    between atoms: _237  and  _238
REMARK   99  A    between atoms: _241  and  _243
REMARK  100  A    between atoms: _243  and  _244
REMARK  101  A    between atoms: _243  and  _246
REMARK  102  A    between atoms: _249  and  _251
REMARK  103  A    between atoms: _251  and  _252
REMARK  104  A    between atoms: _251  and  _254
REMARK  105  A    between atoms: _254  and  _255
REMARK  106  A    between atoms: _255  and  _256
REMARK  107  A    between atoms: _256  and  _257
REMARK  108  A    between atoms: _257  and  _258
REMARK  109  A    between atoms: _262  and  _264
REMARK  110  A    between atoms: _264  and  _265
REMARK  111  A    between atoms: _264  and  _267
REMARK  112  A    between atoms: _267  and  _268
REMARK  113  A    between atoms: _271  and  _273
REMARK  114  A    between atoms: _273  and  _274
REMARK  115  A    between atoms: _276  and  _278
REMARK  116  A    between atoms: _278  and  _279
REMARK  117  A    between atoms: _282  and  _284
REMARK  118  A    between atoms: _284  and  _285
REMARK  119  A    between atoms: _284  and  _287
REMARK  120  A    between atoms: _287  and  _288
REMARK  121  A    between atoms: _291  and  _293
REMARK  122  A    between atoms: _293  and  _294
REMARK  123  A    between atoms: _293  and  _296
REMARK  124  A    between atoms: _296  and  _297
REMARK  125  A    between atoms: _297  and  _298
REMARK  126  A    between atoms: _300  and  _302
REMARK  127  A    between atoms: _302  and  _303
REMARK  128  A    between atoms: _302  and  _305
REMARK  129  A    between atoms: _305  and  _306
REMARK  130  A    between atoms: _309  and  _311
REMARK  131  A    between atoms: _311  and  _312
REMARK  132  A    between atoms: _311  and  _314
REMARK  133  A    between atoms: _314  and  _315
REMARK  134  A    between atoms: _321  and  _323
REMARK  135  A    between atoms: _323  and  _324
REMARK  136  A    between atoms: _323  and  _326
REMARK  137  A    between atoms: _329  and  _331
REMARK  138  A    between atoms: _331  and  _332
REMARK  139  A    between atoms: _331  and  _334
REMARK  140  A    between atoms: _334  and  _335
REMARK  141  A    between atoms: _335  and  _336
REMARK  142  A    between atoms: _336  and  _337
REMARK  143  A    between atoms: _337  and  _338
REMARK  144  A    between atoms: _342  and  _344
REMARK  145  A    between atoms: _344  and  _345
REMARK  146  A    between atoms: _344  and  _347
REMARK  147  A    between atoms: _347  and  _348
REMARK  148  A    between atoms: _353  and  _355
REMARK  149  A    between atoms: _355  and  _356
REMARK  150  A    between atoms: _355  and  _358
REMARK  151  A    between atoms: _358  and  _359
REMARK  152  A    between atoms: _364  and  _366
REMARK  153  A    between atoms: _366  and  _367
REMARK  154  A    between atoms: _366  and  _369
REMARK  155  A    between atoms: _369  and  _370
REMARK  156  A    between atoms: _370  and  _371
REMARK  157  A    between atoms: _374  and  _376
REMARK  158  A    between atoms: _376  and  _377
REMARK  159  A    between atoms: _376  and  _379
REMARK  160  A    between atoms: _379  and  _380
REMARK  161  A    between atoms: _383  and  _385
REMARK  162  A    between atoms: _385  and  _386
REMARK  163  A    between atoms: _385  and  _388
REMARK  164  A    between atoms: _388  and  _389
REMARK  165  A    between atoms: _392  and  _394
REMARK  166  A    between atoms: _394  and  _395
REMARK  167  A    between atoms: _394  and  _397
REMARK  168  A    between atoms: _397  and  _398
REMARK  169  A    between atoms: _401  and  _403
REMARK  170  A    between atoms: _403  and  _404
REMARK  171  A    between atoms: _403  and  _406
REMARK  172  A    between atoms: _406  and  _407
REMARK  173  A    between atoms: _407  and  _408
REMARK  174  A    between atoms: _410  and  _412
REMARK  175  A    between atoms: _412  and  _413
REMARK  176  A    between atoms: _412  and  _415
REMARK  177  A    between atoms: _415  and  _416
REMARK  178  A    between atoms: _416  and  _417
REMARK  179  A    between atoms: _420  and  _422
REMARK  180  A    between atoms: _422  and  _423
REMARK  181  A    between atoms: _422  and  _425
REMARK  182  A    between atoms: _425  and  _426
REMARK  183  A    between atoms: _428  and  _430
REMARK  184  A    between atoms: _430  and  _431
REMARK  185  A    between atoms: _430  and  _433
REMARK  186  A    between atoms: _433  and  _434
REMARK  187  A    between atoms: _437  and  _439
REMARK  188  A    between atoms: _439  and  _440
REMARK  189  A    between atoms: _439  and  _442
REMARK  190  A    between atoms: _442  and  _443
REMARK  191  A    between atoms: _446  and  _448
REMARK  192  A    between atoms: _448  and  _449
REMARK  193  A    between atoms: _448  and  _451
REMARK  194  A    between atoms: _451  and  _452
REMARK  195  A    between atoms: _455  and  _457
REMARK  196  A    between atoms: _457  and  _458
REMARK  197  A    between atoms: _457  and  _460
REMARK  198  A    between atoms: _460  and  _461
REMARK  199  A    between atoms: _464  and  _466
REMARK  200  A    between atoms: _466  and  _467
REMARK  201  A    between atoms: _466  and  _469
REMARK  202  A    between atoms: _469  and  _470
REMARK  203  A    between atoms: _470  and  _471
REMARK  204  A    between atoms: _471  and  _472
REMARK  205  A    between atoms: _472  and  _473
REMARK  206  A    between atoms: _477  and  _479
REMARK  207  A    between atoms: _479  and  _480
REMARK  208  A    between atoms: _482  and  _484
REMARK  209  A    between atoms: _484  and  _485
REMARK  210  A    between atoms: _484  and  _487
REMARK  211  A    between atoms: _487  and  _488
REMARK  212  A    between atoms: _493  and  _494
REMARK  213  A    between atoms: _496  and  _498
REMARK  214  A    between atoms: _498  and  _499
REMARK  215  A    between atoms: _501  and  _503
REMARK  216  A    between atoms: _503  and  _504
REMARK  217  A    between atoms: _503  and  _506
REMARK  218  A    between atoms: _506  and  _507
REMARK                            x       y       z     vdW  Elec       q    Type
REMARK                         _______ _______ _______ _____ _____    ______ ____
ROOT
ATOM      1  O   HOH     1       1.476  29.538  21.276  0.00  0.00    +0.000 OA
ENDROOT
TORSDOF 0
REMARK  Name = ../refined-set-2016/4nwc/4nwc_pocket.pdb
REMARK  218 active torsions:
REMARK  status: ('A' for Active; 'I' for Inactive)
REMARK    1  A    between atoms: _1  and  _3
REMARK    2  A    between atoms: _3  and  _4
REMARK    3  A    between atoms: _3  and  _6
REMARK    4  A    between atoms: _6  and  _7
REMARK    5  A    between atoms: _10  and  _12
REMARK    6  A    between atoms: _12  and  _13
REMARK    7  A    between atoms: _12  and  _15
REMARK    8  A    between atoms: _15  and  _16
REMARK    9  A    between atoms: _19  and  _21
REMARK   10  A    between atoms: _21  and  _22
REMARK   11  A    between atoms: _21  and  _24
REMARK   12  A    between atoms: _24  and  _25
REMARK   13  A    between atoms: _25  and  _26
REMARK   14  A    between atoms: _29  and  _31
REMARK   15  A    between atoms: _31  and  _32
REMARK   16  A    between atoms: _31  and  _34
REMARK   17  A    between atoms: _34  and  _35
REMARK   18  A    between atoms: _35  and  _36
REMARK   19  A    between atoms: _40  and  _41
REMARK   20  A    between atoms: _46  and  _48
REMARK   21  A    between atoms: _48  and  _49
REMARK   22  A    between atoms: _48  and  _51
REMARK   23  A    between atoms: _51  and  _52
REMARK   24  A    between atoms: _58  and  _60
REMARK   25  A    between atoms: _60  and  _61
REMARK   26  A    between atoms: _60  and  _63
REMARK   27  A    between atoms: _63  and  _64
REMARK   28  A    between atoms: _64  and  _65
REMARK   29  A    between atoms: _65  and  _66
REMARK   30  A    between atoms: _66  and  _67
REMARK   31  A    between atoms: _71  and  _73
REMARK   32  A    between atoms: _73  and  _74
REMARK   33  A    between atoms: _73  and  _76
REMARK   34  A    between atoms: _76  and  _77
REMARK   35  A    between atoms: _82  and  _83
REMARK   36  A    between atoms: _85  and  _87
REMARK   37  A    between atoms: _87  and  _88
REMARK   38  A    between atoms: _90  and  _92
REMARK   39  A    between atoms: _92  and  _93
REMARK   40  A    between atoms: _96  and  _98
REMARK   41  A    between atoms: _98  and  _99
REMARK   42  A    between atoms: _98  and  _101
REMARK   43  A    between atoms: _101  and  _102
REMARK   44  A    between atoms: _102  and  _103
REMARK   45  A    between atoms: _105  and  _107
REMARK   46  A    between atoms: _107  and  _108
REMARK   47  A    between atoms: _107  and  _110
REMARK   48  A    between atoms: _113  and  _115
REMARK   49  A    between atoms: _115  and  _116
REMARK   50  A    between atoms: _120  and  _121
REMARK   51  A    between atoms: _126  and  _128
REMARK   52  A    between atoms: _128  and  _129
REMARK   53  A    between atoms: _128  and  _131
REMARK   54  A    between atoms: _131  and  _132
REMARK   55  A    between atoms: _135  and  _137
REMARK   56  A    between atoms: _137  and  _138
REMARK   57  A    between atoms: _137  and  _140
REMARK   58  A    between atoms: _140  and  _141
REMARK   59  A    between atoms: _144  and  _146
REMARK   60  A    between atoms: _146  and  _147
REMARK   61  A    between atoms: _146  and  _149
REMARK   62  A    between atoms: _149  and  _150
REMARK   63  A    between atoms: _153  and  _155
REMARK   64  A    between atoms: _155  and  _156
REMARK   65  A    between atoms: _155  and  _158
REMARK   66  A    between atoms: _158  and  _159
REMARK   67  A    between atoms: _162  and  _164
REMARK   68  A    between atoms: _164  and  _165
REMARK   69  A    between atoms: _164  and  _167
REMARK   70  A    between atoms: _167  and  _168
REMARK   71  A    between atoms: _168  and  _169
REMARK   72  A    between atoms: _169  and  _170
REMARK   73  A    between atoms: _179  and  _181
REMARK   74  A    between atoms: _181  and  _182
REMARK   75  A    between atoms: _181  and  _184
REMARK   76  A    between atoms: _184  and  _185
REMARK   77  A    between atoms: _191  and  _193
REMARK   78  A    between atoms: _193  and  _194
REMARK   79  A    between atoms: _193  and  _196
REMARK   80  A    between atoms: _196  and  _197
REMARK   81  A    between atoms: _197  and  _198
REMARK   82  A    between atoms: _200  and  _202
REMARK   83  A    between atoms: _202  and  _203
REMARK   84  A    between atoms: _202  and  _205
REMARK   85  A    between atoms: _205  and  _206
REMARK   86  A    between atoms: _209  and  _211
REMARK   87  A    between atoms: _211  and  _212
REMARK   88  A    between atoms: _214  and  _216
REMARK   89  A    between atoms: _216  and  _217
REMARK   90  A    between atoms: _216  and  _219
REMARK   91  A    between atoms: _222  and  _224
REMARK   92  A    between atoms: _224  and  _225
REMARK   93  A    between atoms: _224  and  _227
REMARK   94  A    between atoms: _227  and  _228
REMARK   95  A    between atoms: _230  and  _232
REMARK   96  A    between atoms: _232  and  _233
REMARK   97  A    between atoms: _235  and  _237
REMARK   98  A    between atoms: _237  and  _238
REMARK   99  A    between atoms: _241  and  _243
REMARK  100  A    between atoms: _243  and  _244
REMARK  101  A    between atoms: _243  and  _246
REMARK  102  A    between atoms: _249  and  _251
REMARK  103  A    between atoms: _251  and  _252
REMARK  104  A    between atoms: _251  and  _254
REMARK  105  A    between atoms: _254  and  _255
REMARK  106  A    between atoms: _255  and  _256
REMARK  107  A    between atoms: _256  and  _257
REMARK  108  A    between atoms: _257  and  _258
REMARK  109  A    between atoms: _262  and  _264
REMARK  110  A    between atoms: _264  and  _265
REMARK  111  A    between atoms: _264  and  _267
REMARK  112  A    between atoms: _267  and  _268
REMARK  113  A    between atoms: _271  and  _273
REMARK  114  A    between atoms: _273  and  _274
REMARK  115  A    between atoms: _276  and  _278
REMARK  116  A    between atoms: _278  and  _279
REMARK  117  A    between atoms: _282  and  _284
REMARK  118  A    between atoms: _284  and  _285
REMARK  119  A    between atoms: _284  and  _287
REMARK  120  A    between atoms: _287  and  _288
REMARK  121  A    between atoms: _291  and  _293
REMARK  122  A    between atoms: _293  and  _294
REMARK  123  A    between atoms: _293  and  _296
REMARK  124  A    between atoms: _296  and  _297
REMARK  125  A    between atoms: _297  and  _298
REMARK  126  A    between atoms: _300  and  _302
REMARK  127  A    between atoms: _302  and  _303
REMARK  128  A    between atoms: _302  and  _305
REMARK  129  A    between atoms: _305  and  _306
REMARK  130  A    between atoms: _309  and  _311
REMARK  131  A    between atoms: _311  and  _312
REMARK  132  A    between atoms: _311  and  _314
REMARK  133  A    between atoms: _314  and  _315
REMARK  134  A    between atoms: _321  and  _323
REMARK  135  A    between atoms: _323  and  _324
REMARK  136  A    between atoms: _323  and  _326
REMARK  137  A    between atoms: _329  and  _331
REMARK  138  A    between atoms: _331  and  _332
REMARK  139  A    between atoms: _331  and  _334
REMARK  140  A    between atoms: _334  and  _335
REMARK  141  A    between atoms: _335  and  _336
REMARK  142  A    between atoms: _336  and  _337
REMARK  143  A    between atoms: _337  and  _338
REMARK  144  A    between atoms: _342  and  _344
REMARK  145  A    between atoms: _344  and  _345
REMARK  146  A    between atoms: _344  and  _347
REMARK  147  A    between atoms: _347  and  _348
REMARK  148  A    between atoms: _353  and  _355
REMARK  149  A    between atoms: _355  and  _356
REMARK  150  A    between atoms: _355  and  _358
REMARK  151  A    between atoms: _358  and  _359
REMARK  152  A    between atoms: _364  and  _366
REMARK  153  A    between atoms: _366  and  _367
REMARK  154  A    between atoms: _366  and  _369
REMARK  155  A    between atoms: _369  and  _370
REMARK  156  A    between atoms: _370  and  _371
REMARK  157  A    between atoms: _374  and  _376
REMARK  158  A    between atoms: _376  and  _377
REMARK  159  A    between atoms: _376  and  _379
REMARK  160  A    between atoms: _379  and  _380
REMARK  161  A    between atoms: _383  and  _385
REMARK  162  A    between atoms: _385  and  _386
REMARK  163  A    between atoms: _385  and  _388
REMARK  164  A    between atoms: _388  and  _389
REMARK  165  A    between atoms: _392  and  _394
REMARK  166  A    between atoms: _394  and  _395
REMARK  167  A    between atoms: _394  and  _397
REMARK  168  A    between atoms: _397  and  _398
REMARK  169  A    between atoms: _401  and  _403
REMARK  170  A    between atoms: _403  and  _404
REMARK  171  A    between atoms: _403  and  _406
REMARK  172  A    between atoms: _406  and  _407
REMARK  173  A    between atoms: _407  and  _408
REMARK  174  A    between atoms: _410  and  _412
REMARK  175  A    between atoms: _412  and  _413
REMARK  176  A    between atoms: _412  and  _415
REMARK  177  A    between atoms: _415  and  _416
REMARK  178  A    between atoms: _416  and  _417
REMARK  179  A    between atoms: _420  and  _422
REMARK  180  A    between atoms: _422  and  _423
REMARK  181  A    between atoms: _422  and  _425
REMARK  182  A    between atoms: _425  and  _426
REMARK  183  A    between atoms: _428  and  _430
REMARK  184  A    between atoms: _430  and  _431
REMARK  185  A    between atoms: _430  and  _433
REMARK  186  A    between atoms: _433  and  _434
REMARK  187  A    between atoms: _437  and  _439
REMARK  188  A    between atoms: _439  and  _440
REMARK  189  A    between atoms: _439  and  _442
REMARK  190  A    between atoms: _442  and  _443
REMARK  191  A    between atoms: _446  and  _448
REMARK  192  A    between atoms: _448  and  _449
REMARK  193  A    between atoms: _448  and  _451
REMARK  194  A    between atoms: _451  and  _452
REMARK  195  A    between atoms: _455  and  _457
REMARK  196  A    between atoms: _457  and  _458
REMARK  197  A    between atoms: _457  and  _460
REMARK  198  A    between atoms: _460  and  _461
REMARK  199  A    between atoms: _464  and  _466
REMARK  200  A    between atoms: _466  and  _467
REMARK  201  A    between atoms: _466  and  _469
REMARK  202  A    between atoms: _469  and  _470
REMARK  203  A    between atoms: _470  and  _471
REMARK  204  A    between atoms: _471  and  _472
REMARK  205  A    between atoms: _472  and  _473
REMARK  206  A    between atoms: _477  and  _479
REMARK  207  A    between atoms: _479  and  _480
REMARK  208  A    between atoms: _482  and  _484
REMARK  209  A    between atoms: _484  and  _485
REMARK  210  A    between atoms: _484  and  _487
REMARK  211  A    between atoms: _487  and  _488
REMARK  212  A    between atoms: _493  and  _494
REMARK  213  A    between atoms: _496  and  _498
REMARK  214  A    between atoms: _498  and  _499
REMARK  215  A    between atoms: _501  and  _503
REMARK  216  A    between atoms: _503  and  _504
REMARK  217  A    between atoms: _503  and  _506
REMARK  218  A    between atoms: _506  and  _507
REMARK                            x       y       z     vdW  Elec       q    Type
REMARK                         _______ _______ _______ _____ _____    ______ ____
ROOT
ATOM      1  O   HOH     1       7.431  28.474  23.494  0.00  0.00    +0.000 OA
ENDROOT
TORSDOF 0
REMARK  Name = ../refined-set-2016/4nwc/4nwc_pocket.pdb
REMARK  218 active torsions:
REMARK  status: ('A' for Active; 'I' for Inactive)
REMARK    1  A    between atoms: _1  and  _3
REMARK    2  A    between atoms: _3  and  _4
REMARK    3  A    between atoms: _3  and  _6
REMARK    4  A    between atoms: _6  and  _7
REMARK    5  A    between atoms: _10  and  _12
REMARK    6  A    between atoms: _12  and  _13
REMARK    7  A    between atoms: _12  and  _15
REMARK    8  A    between atoms: _15  and  _16
REMARK    9  A    between atoms: _19  and  _21
REMARK   10  A    between atoms: _21  and  _22
REMARK   11  A    between atoms: _21  and  _24
REMARK   12  A    between atoms: _24  and  _25
REMARK   13  A    between atoms: _25  and  _26
REMARK   14  A    between atoms: _29  and  _31
REMARK   15  A    between atoms: _31  and  _32
REMARK   16  A    between atoms: _31  and  _34
REMARK   17  A    between atoms: _34  and  _35
REMARK   18  A    between atoms: _35  and  _36
REMARK   19  A    between atoms: _40  and  _41
REMARK   20  A    between atoms: _46  and  _48
REMARK   21  A    between atoms: _48  and  _49
REMARK   22  A    between atoms: _48  and  _51
REMARK   23  A    between atoms: _51  and  _52
REMARK   24  A    between atoms: _58  and  _60
REMARK   25  A    between atoms: _60  and  _61
REMARK   26  A    between atoms: _60  and  _63
REMARK   27  A    between atoms: _63  and  _64
REMARK   28  A    between atoms: _64  and  _65
REMARK   29  A    between atoms: _65  and  _66
REMARK   30  A    between atoms: _66  and  _67
REMARK   31  A    between atoms: _71  and  _73
REMARK   32  A    between atoms: _73  and  _74
REMARK   33  A    between atoms: _73  and  _76
REMARK   34  A    between atoms: _76  and  _77
REMARK   35  A    between atoms: _82  and  _83
REMARK   36  A    between atoms: _85  and  _87
REMARK   37  A    between atoms: _87  and  _88
REMARK   38  A    between atoms: _90  and  _92
REMARK   39  A    between atoms: _92  and  _93
REMARK   40  A    between atoms: _96  and  _98
REMARK   41  A    between atoms: _98  and  _99
REMARK   42  A    between atoms: _98  and  _101
REMARK   43  A    between atoms: _101  and  _102
REMARK   44  A    between atoms: _102  and  _103
REMARK   45  A    between atoms: _105  and  _107
REMARK   46  A    between atoms: _107  and  _108
REMARK   47  A    between atoms: _107  and  _110
REMARK   48  A    between atoms: _113  and  _115
REMARK   49  A    between atoms: _115  and  _116
REMARK   50  A    between atoms: _120  and  _121
REMARK   51  A    between atoms: _126  and  _128
REMARK   52  A    between atoms: _128  and  _129
REMARK   53  A    between atoms: _128  and  _131
REMARK   54  A    between atoms: _131  and  _132
REMARK   55  A    between atoms: _135  and  _137
REMARK   56  A    between atoms: _137  and  _138
REMARK   57  A    between atoms: _137  and  _140
REMARK   58  A    between atoms: _140  and  _141
REMARK   59  A    between atoms: _144  and  _146
REMARK   60  A    between atoms: _146  and  _147
REMARK   61  A    between atoms: _146  and  _149
REMARK   62  A    between atoms: _149  and  _150
REMARK   63  A    between atoms: _153  and  _155
REMARK   64  A    between atoms: _155  and  _156
REMARK   65  A    between atoms: _155  and  _158
REMARK   66  A    between atoms: _158  and  _159
REMARK   67  A    between atoms: _162  and  _164
REMARK   68  A    between atoms: _164  and  _165
REMARK   69  A    between atoms: _164  and  _167
REMARK   70  A    between atoms: _167  and  _168
REMARK   71  A    between atoms: _168  and  _169
REMARK   72  A    between atoms: _169  and  _170
REMARK   73  A    between atoms: _179  and  _181
REMARK   74  A    between atoms: _181  and  _182
REMARK   75  A    between atoms: _181  and  _184
REMARK   76  A    between atoms: _184  and  _185
REMARK   77  A    between atoms: _191  and  _193
REMARK   78  A    between atoms: _193  and  _194
REMARK   79  A    between atoms: _193  and  _196
REMARK   80  A    between atoms: _196  and  _197
REMARK   81  A    between atoms: _197  and  _198
REMARK   82  A    between atoms: _200  and  _202
REMARK   83  A    between atoms: _202  and  _203
REMARK   84  A    between atoms: _202  and  _205
REMARK   85  A    between atoms: _205  and  _206
REMARK   86  A    between atoms: _209  and  _211
REMARK   87  A    between atoms: _211  and  _212
REMARK   88  A    between atoms: _214  and  _216
REMARK   89  A    between atoms: _216  and  _217
REMARK   90  A    between atoms: _216  and  _219
REMARK   91  A    between atoms: _222  and  _224
REMARK   92  A    between atoms: _224  and  _225
REMARK   93  A    between atoms: _224  and  _227
REMARK   94  A    between atoms: _227  and  _228
REMARK   95  A    between atoms: _230  and  _232
REMARK   96  A    between atoms: _232  and  _233
REMARK   97  A    between atoms: _235  and  _237
REMARK   98  A    between atoms: _237  and  _238
REMARK   99  A    between atoms: _241  and  _243
REMARK  100  A    between atoms: _243  and  _244
REMARK  101  A    between atoms: _243  and  _246
REMARK  102  A    between atoms: _249  and  _251
REMARK  103  A    between atoms: _251  and  _252
REMARK  104  A    between atoms: _251  and  _254
REMARK  105  A    between atoms: _254  and  _255
REMARK  106  A    between atoms: _255  and  _256
REMARK  107  A    between atoms: _256  and  _257
REMARK  108  A    between atoms: _257  and  _258
REMARK  109  A    between atoms: _262  and  _264
REMARK  110  A    between atoms: _264  and  _265
REMARK  111  A    between atoms: _264  and  _267
REMARK  112  A    between atoms: _267  and  _268
REMARK  113  A    between atoms: _271  and  _273
REMARK  114  A    between atoms: _273  and  _274
REMARK  115  A    between atoms: _276  and  _278
REMARK  116  A    between atoms: _278  and  _279
REMARK  117  A    between atoms: _282  and  _284
REMARK  118  A    between atoms: _284  and  _285
REMARK  119  A    between atoms: _284  and  _287
REMARK  120  A    between atoms: _287  and  _288
REMARK  121  A    between atoms: _291  and  _293
REMARK  122  A    between atoms: _293  and  _294
REMARK  123  A    between atoms: _293  and  _296
REMARK  124  A    between atoms: _296  and  _297
REMARK  125  A    between atoms: _297  and  _298
REMARK  126  A    between atoms: _300  and  _302
REMARK  127  A    between atoms: _302  and  _303
REMARK  128  A    between atoms: _302  and  _305
REMARK  129  A    between atoms: _305  and  _306
REMARK  130  A    between atoms: _309  and  _311
REMARK  131  A    between atoms: _311  and  _312
REMARK  132  A    between atoms: _311  and  _314
REMARK  133  A    between atoms: _314  and  _315
REMARK  134  A    between atoms: _321  and  _323
REMARK  135  A    between atoms: _323  and  _324
REMARK  136  A    between atoms: _323  and  _326
REMARK  137  A    between atoms: _329  and  _331
REMARK  138  A    between atoms: _331  and  _332
REMARK  139  A    between atoms: _331  and  _334
REMARK  140  A    between atoms: _334  and  _335
REMARK  141  A    between atoms: _335  and  _336
REMARK  142  A    between atoms: _336  and  _337
REMARK  143  A    between atoms: _337  and  _338
REMARK  144  A    between atoms: _342  and  _344
REMARK  145  A    between atoms: _344  and  _345
REMARK  146  A    between atoms: _344  and  _347
REMARK  147  A    between atoms: _347  and  _348
REMARK  148  A    between atoms: _353  and  _355
REMARK  149  A    between atoms: _355  and  _356
REMARK  150  A    between atoms: _355  and  _358
REMARK  151  A    between atoms: _358  and  _359
REMARK  152  A    between atoms: _364  and  _366
REMARK  153  A    between atoms: _366  and  _367
REMARK  154  A    between atoms: _366  and  _369
REMARK  155  A    between atoms: _369  and  _370
REMARK  156  A    between atoms: _370  and  _371
REMARK  157  A    between atoms: _374  and  _376
REMARK  158  A    between atoms: _376  and  _377
REMARK  159  A    between atoms: _376  and  _379
REMARK  160  A    between atoms: _379  and  _380
REMARK  161  A    between atoms: _383  and  _385
REMARK  162  A    between atoms: _385  and  _386
REMARK  163  A    between atoms: _385  and  _388
REMARK  164  A    between atoms: _388  and  _389
REMARK  165  A    between atoms: _392  and  _394
REMARK  166  A    between atoms: _394  and  _395
REMARK  167  A    between atoms: _394  and  _397
REMARK  168  A    between atoms: _397  and  _398
REMARK  169  A    between atoms: _401  and  _403
REMARK  170  A    between atoms: _403  and  _404
REMARK  171  A    between atoms: _403  and  _406
REMARK  172  A    between atoms: _406  and  _407
REMARK  173  A    between atoms: _407  and  _408
REMARK  174  A    between atoms: _410  and  _412
REMARK  175  A    between atoms: _412  and  _413
REMARK  176  A    between atoms: _412  and  _415
REMARK  177  A    between atoms: _415  and  _416
REMARK  178  A    between atoms: _416  and  _417
REMARK  179  A    between atoms: _420  and  _422
REMARK  180  A    between atoms: _422  and  _423
REMARK  181  A    between atoms: _422  and  _425
REMARK  182  A    between atoms: _425  and  _426
REMARK  183  A    between atoms: _428  and  _430
REMARK  184  A    between atoms: _430  and  _431
REMARK  185  A    between atoms: _430  and  _433
REMARK  186  A    between atoms: _433  and  _434
REMARK  187  A    between atoms: _437  and  _439
REMARK  188  A    between atoms: _439  and  _440
REMARK  189  A    between atoms: _439  and  _442
REMARK  190  A    between atoms: _442  and  _443
REMARK  191  A    between atoms: _446  and  _448
REMARK  192  A    between atoms: _448  and  _449
REMARK  193  A    between atoms: _448  and  _451
REMARK  194  A    between atoms: _451  and  _452
REMARK  195  A    between atoms: _455  and  _457
REMARK  196  A    between atoms: _457  and  _458
REMARK  197  A    between atoms: _457  and  _460
REMARK  198  A    between atoms: _460  and  _461
REMARK  199  A    between atoms: _464  and  _466
REMARK  200  A    between atoms: _466  and  _467
REMARK  201  A    between atoms: _466  and  _469
REMARK  202  A    between atoms: _469  and  _470
REMARK  203  A    between atoms: _470  and  _471
REMARK  204  A    between atoms: _471  and  _472
REMARK  205  A    between atoms: _472  and  _473
REMARK  206  A    between atoms: _477  and  _479
REMARK  207  A    between atoms: _479  and  _480
REMARK  208  A    between atoms: _482  and  _484
REMARK  209  A    between atoms: _484  and  _485
REMARK  210  A    between atoms: _484  and  _487
REMARK  211  A    between atoms: _487  and  _488
REMARK  212  A    between atoms: _493  and  _494
REMARK  213  A    between atoms: _496  and  _498
REMARK  214  A    between atoms: _498  and  _499
REMARK  215  A    between atoms: _501  and  _503
REMARK  216  A    between atoms: _503  and  _504
REMARK  217  A    between atoms: _503  and  _506
REMARK  218  A    between atoms: _506  and  _507
REMARK                            x       y       z     vdW  Elec       q    Type
REMARK                         _______ _______ _______ _____ _____    ______ ____
ROOT
ATOM      1  O   HOH     1      -0.530  29.627  19.008  0.00  0.00    +0.000 OA
ENDROOT
TORSDOF 0
REMARK  Name = ../refined-set-2016/4nwc/4nwc_pocket.pdb
REMARK  218 active torsions:
REMARK  status: ('A' for Active; 'I' for Inactive)
REMARK    1  A    between atoms: _1  and  _3
REMARK    2  A    between atoms: _3  and  _4
REMARK    3  A    between atoms: _3  and  _6
REMARK    4  A    between atoms: _6  and  _7
REMARK    5  A    between atoms: _10  and  _12
REMARK    6  A    between atoms: _12  and  _13
REMARK    7  A    between atoms: _12  and  _15
REMARK    8  A    between atoms: _15  and  _16
REMARK    9  A    between atoms: _19  and  _21
REMARK   10  A    between atoms: _21  and  _22
REMARK   11  A    between atoms: _21  and  _24
REMARK   12  A    between atoms: _24  and  _25
REMARK   13  A    between atoms: _25  and  _26
REMARK   14  A    between atoms: _29  and  _31
REMARK   15  A    between atoms: _31  and  _32
REMARK   16  A    between atoms: _31  and  _34
REMARK   17  A    between atoms: _34  and  _35
REMARK   18  A    between atoms: _35  and  _36
REMARK   19  A    between atoms: _40  and  _41
REMARK   20  A    between atoms: _46  and  _48
REMARK   21  A    between atoms: _48  and  _49
REMARK   22  A    between atoms: _48  and  _51
REMARK   23  A    between atoms: _51  and  _52
REMARK   24  A    between atoms: _58  and  _60
REMARK   25  A    between atoms: _60  and  _61
REMARK   26  A    between atoms: _60  and  _63
REMARK   27  A    between atoms: _63  and  _64
REMARK   28  A    between atoms: _64  and  _65
REMARK   29  A    between atoms: _65  and  _66
REMARK   30  A    between atoms: _66  and  _67
REMARK   31  A    between atoms: _71  and  _73
REMARK   32  A    between atoms: _73  and  _74
REMARK   33  A    between atoms: _73  and  _76
REMARK   34  A    between atoms: _76  and  _77
REMARK   35  A    between atoms: _82  and  _83
REMARK   36  A    between atoms: _85  and  _87
REMARK   37  A    between atoms: _87  and  _88
REMARK   38  A    between atoms: _90  and  _92
REMARK   39  A    between atoms: _92  and  _93
REMARK   40  A    between atoms: _96  and  _98
REMARK   41  A    between atoms: _98  and  _99
REMARK   42  A    between atoms: _98  and  _101
REMARK   43  A    between atoms: _101  and  _102
REMARK   44  A    between atoms: _102  and  _103
REMARK   45  A    between atoms: _105  and  _107
REMARK   46  A    between atoms: _107  and  _108
REMARK   47  A    between atoms: _107  and  _110
REMARK   48  A    between atoms: _113  and  _115
REMARK   49  A    between atoms: _115  and  _116
REMARK   50  A    between atoms: _120  and  _121
REMARK   51  A    between atoms: _126  and  _128
REMARK   52  A    between atoms: _128  and  _129
REMARK   53  A    between atoms: _128  and  _131
REMARK   54  A    between atoms: _131  and  _132
REMARK   55  A    between atoms: _135  and  _137
REMARK   56  A    between atoms: _137  and  _138
REMARK   57  A    between atoms: _137  and  _140
REMARK   58  A    between atoms: _140  and  _141
REMARK   59  A    between atoms: _144  and  _146
REMARK   60  A    between atoms: _146  and  _147
REMARK   61  A    between atoms: _146  and  _149
REMARK   62  A    between atoms: _149  and  _150
REMARK   63  A    between atoms: _153  and  _155
REMARK   64  A    between atoms: _155  and  _156
REMARK   65  A    between atoms: _155  and  _158
REMARK   66  A    between atoms: _158  and  _159
REMARK   67  A    between atoms: _162  and  _164
REMARK   68  A    between atoms: _164  and  _165
REMARK   69  A    between atoms: _164  and  _167
REMARK   70  A    between atoms: _167  and  _168
REMARK   71  A    between atoms: _168  and  _169
REMARK   72  A    between atoms: _169  and  _170
REMARK   73  A    between atoms: _179  and  _181
REMARK   74  A    between atoms: _181  and  _182
REMARK   75  A    between atoms: _181  and  _184
REMARK   76  A    between atoms: _184  and  _185
REMARK   77  A    between atoms: _191  and  _193
REMARK   78  A    between atoms: _193  and  _194
REMARK   79  A    between atoms: _193  and  _196
REMARK   80  A    between atoms: _196  and  _197
REMARK   81  A    between atoms: _197  and  _198
REMARK   82  A    between atoms: _200  and  _202
REMARK   83  A    between atoms: _202  and  _203
REMARK   84  A    between atoms: _202  and  _205
REMARK   85  A    between atoms: _205  and  _206
REMARK   86  A    between atoms: _209  and  _211
REMARK   87  A    between atoms: _211  and  _212
REMARK   88  A    between atoms: _214  and  _216
REMARK   89  A    between atoms: _216  and  _217
REMARK   90  A    between atoms: _216  and  _219
REMARK   91  A    between atoms: _222  and  _224
REMARK   92  A    between atoms: _224  and  _225
REMARK   93  A    between atoms: _224  and  _227
REMARK   94  A    between atoms: _227  and  _228
REMARK   95  A    between atoms: _230  and  _232
REMARK   96  A    between atoms: _232  and  _233
REMARK   97  A    between atoms: _235  and  _237
REMARK   98  A    between atoms: _237  and  _238
REMARK   99  A    between atoms: _241  and  _243
REMARK  100  A    between atoms: _243  and  _244
REMARK  101  A    between atoms: _243  and  _246
REMARK  102  A    between atoms: _249  and  _251
REMARK  103  A    between atoms: _251  and  _252
REMARK  104  A    between atoms: _251  and  _254
REMARK  105  A    between atoms: _254  and  _255
REMARK  106  A    between atoms: _255  and  _256
REMARK  107  A    between atoms: _256  and  _257
REMARK  108  A    between atoms: _257  and  _258
REMARK  109  A    between atoms: _262  and  _264
REMARK  110  A    between atoms: _264  and  _265
REMARK  111  A    between atoms: _264  and  _267
REMARK  112  A    between atoms: _267  and  _268
REMARK  113  A    between atoms: _271  and  _273
REMARK  114  A    between atoms: _273  and  _274
REMARK  115  A    between atoms: _276  and  _278
REMARK  116  A    between atoms: _278  and  _279
REMARK  117  A    between atoms: _282  and  _284
REMARK  118  A    between atoms: _284  and  _285
REMARK  119  A    between atoms: _284  and  _287
REMARK  120  A    between atoms: _287  and  _288
REMARK  121  A    between atoms: _291  and  _293
REMARK  122  A    between atoms: _293  and  _294
REMARK  123  A    between atoms: _293  and  _296
REMARK  124  A    between atoms: _296  and  _297
REMARK  125  A    between atoms: _297  and  _298
REMARK  126  A    between atoms: _300  and  _302
REMARK  127  A    between atoms: _302  and  _303
REMARK  128  A    between atoms: _302  and  _305
REMARK  129  A    between atoms: _305  and  _306
REMARK  130  A    between atoms: _309  and  _311
REMARK  131  A    between atoms: _311  and  _312
REMARK  132  A    between atoms: _311  and  _314
REMARK  133  A    between atoms: _314  and  _315
REMARK  134  A    between atoms: _321  and  _323
REMARK  135  A    between atoms: _323  and  _324
REMARK  136  A    between atoms: _323  and  _326
REMARK  137  A    between atoms: _329  and  _331
REMARK  138  A    between atoms: _331  and  _332
REMARK  139  A    between atoms: _331  and  _334
REMARK  140  A    between atoms: _334  and  _335
REMARK  141  A    between atoms: _335  and  _336
REMARK  142  A    between atoms: _336  and  _337
REMARK  143  A    between atoms: _337  and  _338
REMARK  144  A    between atoms: _342  and  _344
REMARK  145  A    between atoms: _344  and  _345
REMARK  146  A    between atoms: _344  and  _347
REMARK  147  A    between atoms: _347  and  _348
REMARK  148  A    between atoms: _353  and  _355
REMARK  149  A    between atoms: _355  and  _356
REMARK  150  A    between atoms: _355  and  _358
REMARK  151  A    between atoms: _358  and  _359
REMARK  152  A    between atoms: _364  and  _366
REMARK  153  A    between atoms: _366  and  _367
REMARK  154  A    between atoms: _366  and  _369
REMARK  155  A    between atoms: _369  and  _370
REMARK  156  A    between atoms: _370  and  _371
REMARK  157  A    between atoms: _374  and  _376
REMARK  158  A    between atoms: _376  and  _377
REMARK  159  A    between atoms: _376  and  _379
REMARK  160  A    between atoms: _379  and  _380
REMARK  161  A    between atoms: _383  and  _385
REMARK  162  A    between atoms: _385  and  _386
REMARK  163  A    between atoms: _385  and  _388
REMARK  164  A    between atoms: _388  and  _389
REMARK  165  A    between atoms: _392  and  _394
REMARK  166  A    between atoms: _394  and  _395
REMARK  167  A    between atoms: _394  and  _397
REMARK  168  A    between atoms: _397  and  _398
REMARK  169  A    between atoms: _401  and  _403
REMARK  170  A    between atoms: _403  and  _404
REMARK  171  A    between atoms: _403  and  _406
REMARK  172  A    between atoms: _406  and  _407
REMARK  173  A    between atoms: _407  and  _408
REMARK  174  A    between atoms: _410  and  _412
REMARK  175  A    between atoms: _412  and  _413
REMARK  176  A    between atoms: _412  and  _415
REMARK  177  A    between atoms: _415  and  _416
REMARK  178  A    between atoms: _416  and  _417
REMARK  179  A    between atoms: _420  and  _422
REMARK  180  A    between atoms: _422  and  _423
REMARK  181  A    between atoms: _422  and  _425
REMARK  182  A    between atoms: _425  and  _426
REMARK  183  A    between atoms: _428  and  _430
REMARK  184  A    between atoms: _430  and  _431
REMARK  185  A    between atoms: _430  and  _433
REMARK  186  A    between atoms: _433  and  _434
REMARK  187  A    between atoms: _437  and  _439
REMARK  188  A    between atoms: _439  and  _440
REMARK  189  A    between atoms: _439  and  _442
REMARK  190  A    between atoms: _442  and  _443
REMARK  191  A    between atoms: _446  and  _448
REMARK  192  A    between atoms: _448  and  _449
REMARK  193  A    between atoms: _448  and  _451
REMARK  194  A    between atoms: _451  and  _452
REMARK  195  A    between atoms: _455  and  _457
REMARK  196  A    between atoms: _457  and  _458
REMARK  197  A    between atoms: _457  and  _460
REMARK  198  A    between atoms: _460  and  _461
REMARK  199  A    between atoms: _464  and  _466
REMARK  200  A    between atoms: _466  and  _467
REMARK  201  A    between atoms: _466  and  _469
REMARK  202  A    between atoms: _469  and  _470
REMARK  203  A    between atoms: _470  and  _471
REMARK  204  A    between atoms: _471  and  _472
REMARK  205  A    between atoms: _472  and  _473
REMARK  206  A    between atoms: _477  and  _479
REMARK  207  A    between atoms: _479  and  _480
REMARK  208  A    between atoms: _482  and  _484
REMARK  209  A    between atoms: _484  and  _485
REMARK  210  A    between atoms: _484  and  _487
REMARK  211  A    between atoms: _487  and  _488
REMARK  212  A    between atoms: _493  and  _494
REMARK  213  A    between atoms: _496  and  _498
REMARK  214  A    between atoms: _498  and  _499
REMARK  215  A    between atoms: _501  and  _503
REMARK  216  A    between atoms: _503  and  _504
REMARK  217  A    between atoms: _503  and  _506
REMARK  218  A    between atoms: _506  and  _507
REMARK                            x       y       z     vdW  Elec       q    Type
REMARK                         _______ _______ _______ _____ _____    ______ ____
ROOT
ATOM      1  O   HOH     1      -1.758  27.066   8.243  0.00  0.00    +0.000 OA
ENDROOT
TORSDOF 0
REMARK  Name = ../refined-set-2016/4nwc/4nwc_pocket.pdb
REMARK  218 active torsions:
REMARK  status: ('A' for Active; 'I' for Inactive)
REMARK    1  A    between atoms: _1  and  _3
REMARK    2  A    between atoms: _3  and  _4
REMARK    3  A    between atoms: _3  and  _6
REMARK    4  A    between atoms: _6  and  _7
REMARK    5  A    between atoms: _10  and  _12
REMARK    6  A    between atoms: _12  and  _13
REMARK    7  A    between atoms: _12  and  _15
REMARK    8  A    between atoms: _15  and  _16
REMARK    9  A    between atoms: _19  and  _21
REMARK   10  A    between atoms: _21  and  _22
REMARK   11  A    between atoms: _21  and  _24
REMARK   12  A    between atoms: _24  and  _25
REMARK   13  A    between atoms: _25  and  _26
REMARK   14  A    between atoms: _29  and  _31
REMARK   15  A    between atoms: _31  and  _32
REMARK   16  A    between atoms: _31  and  _34
REMARK   17  A    between atoms: _34  and  _35
REMARK   18  A    between atoms: _35  and  _36
REMARK   19  A    between atoms: _40  and  _41
REMARK   20  A    between atoms: _46  and  _48
REMARK   21  A    between atoms: _48  and  _49
REMARK   22  A    between atoms: _48  and  _51
REMARK   23  A    between atoms: _51  and  _52
REMARK   24  A    between atoms: _58  and  _60
REMARK   25  A    between atoms: _60  and  _61
REMARK   26  A    between atoms: _60  and  _63
REMARK   27  A    between atoms: _63  and  _64
REMARK   28  A    between atoms: _64  and  _65
REMARK   29  A    between atoms: _65  and  _66
REMARK   30  A    between atoms: _66  and  _67
REMARK   31  A    between atoms: _71  and  _73
REMARK   32  A    between atoms: _73  and  _74
REMARK   33  A    between atoms: _73  and  _76
REMARK   34  A    between atoms: _76  and  _77
REMARK   35  A    between atoms: _82  and  _83
REMARK   36  A    between atoms: _85  and  _87
REMARK   37  A    between atoms: _87  and  _88
REMARK   38  A    between atoms: _90  and  _92
REMARK   39  A    between atoms: _92  and  _93
REMARK   40  A    between atoms: _96  and  _98
REMARK   41  A    between atoms: _98  and  _99
REMARK   42  A    between atoms: _98  and  _101
REMARK   43  A    between atoms: _101  and  _102
REMARK   44  A    between atoms: _102  and  _103
REMARK   45  A    between atoms: _105  and  _107
REMARK   46  A    between atoms: _107  and  _108
REMARK   47  A    between atoms: _107  and  _110
REMARK   48  A    between atoms: _113  and  _115
REMARK   49  A    between atoms: _115  and  _116
REMARK   50  A    between atoms: _120  and  _121
REMARK   51  A    between atoms: _126  and  _128
REMARK   52  A    between atoms: _128  and  _129
REMARK   53  A    between atoms: _128  and  _131
REMARK   54  A    between atoms: _131  and  _132
REMARK   55  A    between atoms: _135  and  _137
REMARK   56  A    between atoms: _137  and  _138
REMARK   57  A    between atoms: _137  and  _140
REMARK   58  A    between atoms: _140  and  _141
REMARK   59  A    between atoms: _144  and  _146
REMARK   60  A    between atoms: _146  and  _147
REMARK   61  A    between atoms: _146  and  _149
REMARK   62  A    between atoms: _149  and  _150
REMARK   63  A    between atoms: _153  and  _155
REMARK   64  A    between atoms: _155  and  _156
REMARK   65  A    between atoms: _155  and  _158
REMARK   66  A    between atoms: _158  and  _159
REMARK   67  A    between atoms: _162  and  _164
REMARK   68  A    between atoms: _164  and  _165
REMARK   69  A    between atoms: _164  and  _167
REMARK   70  A    between atoms: _167  and  _168
REMARK   71  A    between atoms: _168  and  _169
REMARK   72  A    between atoms: _169  and  _170
REMARK   73  A    between atoms: _179  and  _181
REMARK   74  A    between atoms: _181  and  _182
REMARK   75  A    between atoms: _181  and  _184
REMARK   76  A    between atoms: _184  and  _185
REMARK   77  A    between atoms: _191  and  _193
REMARK   78  A    between atoms: _193  and  _194
REMARK   79  A    between atoms: _193  and  _196
REMARK   80  A    between atoms: _196  and  _197
REMARK   81  A    between atoms: _197  and  _198
REMARK   82  A    between atoms: _200  and  _202
REMARK   83  A    between atoms: _202  and  _203
REMARK   84  A    between atoms: _202  and  _205
REMARK   85  A    between atoms: _205  and  _206
REMARK   86  A    between atoms: _209  and  _211
REMARK   87  A    between atoms: _211  and  _212
REMARK   88  A    between atoms: _214  and  _216
REMARK   89  A    between atoms: _216  and  _217
REMARK   90  A    between atoms: _216  and  _219
REMARK   91  A    between atoms: _222  and  _224
REMARK   92  A    between atoms: _224  and  _225
REMARK   93  A    between atoms: _224  and  _227
REMARK   94  A    between atoms: _227  and  _228
REMARK   95  A    between atoms: _230  and  _232
REMARK   96  A    between atoms: _232  and  _233
REMARK   97  A    between atoms: _235  and  _237
REMARK   98  A    between atoms: _237  and  _238
REMARK   99  A    between atoms: _241  and  _243
REMARK  100  A    between atoms: _243  and  _244
REMARK  101  A    between atoms: _243  and  _246
REMARK  102  A    between atoms: _249  and  _251
REMARK  103  A    between atoms: _251  and  _252
REMARK  104  A    between atoms: _251  and  _254
REMARK  105  A    between atoms: _254  and  _255
REMARK  106  A    between atoms: _255  and  _256
REMARK  107  A    between atoms: _256  and  _257
REMARK  108  A    between atoms: _257  and  _258
REMARK  109  A    between atoms: _262  and  _264
REMARK  110  A    between atoms: _264  and  _265
REMARK  111  A    between atoms: _264  and  _267
REMARK  112  A    between atoms: _267  and  _268
REMARK  113  A    between atoms: _271  and  _273
REMARK  114  A    between atoms: _273  and  _274
REMARK  115  A    between atoms: _276  and  _278
REMARK  116  A    between atoms: _278  and  _279
REMARK  117  A    between atoms: _282  and  _284
REMARK  118  A    between atoms: _284  and  _285
REMARK  119  A    between atoms: _284  and  _287
REMARK  120  A    between atoms: _287  and  _288
REMARK  121  A    between atoms: _291  and  _293
REMARK  122  A    between atoms: _293  and  _294
REMARK  123  A    between atoms: _293  and  _296
REMARK  124  A    between atoms: _296  and  _297
REMARK  125  A    between atoms: _297  and  _298
REMARK  126  A    between atoms: _300  and  _302
REMARK  127  A    between atoms: _302  and  _303
REMARK  128  A    between atoms: _302  and  _305
REMARK  129  A    between atoms: _305  and  _306
REMARK  130  A    between atoms: _309  and  _311
REMARK  131  A    between atoms: _311  and  _312
REMARK  132  A    between atoms: _311  and  _314
REMARK  133  A    between atoms: _314  and  _315
REMARK  134  A    between atoms: _321  and  _323
REMARK  135  A    between atoms: _323  and  _324
REMARK  136  A    between atoms: _323  and  _326
REMARK  137  A    between atoms: _329  and  _331
REMARK  138  A    between atoms: _331  and  _332
REMARK  139  A    between atoms: _331  and  _334
REMARK  140  A    between atoms: _334  and  _335
REMARK  141  A    between atoms: _335  and  _336
REMARK  142  A    between atoms: _336  and  _337
REMARK  143  A    between atoms: _337  and  _338
REMARK  144  A    between atoms: _342  and  _344
REMARK  145  A    between atoms: _344  and  _345
REMARK  146  A    between atoms: _344  and  _347
REMARK  147  A    between atoms: _347  and  _348
REMARK  148  A    between atoms: _353  and  _355
REMARK  149  A    between atoms: _355  and  _356
REMARK  150  A    between atoms: _355  and  _358
REMARK  151  A    between atoms: _358  and  _359
REMARK  152  A    between atoms: _364  and  _366
REMARK  153  A    between atoms: _366  and  _367
REMARK  154  A    between atoms: _366  and  _369
REMARK  155  A    between atoms: _369  and  _370
REMARK  156  A    between atoms: _370  and  _371
REMARK  157  A    between atoms: _374  and  _376
REMARK  158  A    between atoms: _376  and  _377
REMARK  159  A    between atoms: _376  and  _379
REMARK  160  A    between atoms: _379  and  _380
REMARK  161  A    between atoms: _383  and  _385
REMARK  162  A    between atoms: _385  and  _386
REMARK  163  A    between atoms: _385  and  _388
REMARK  164  A    between atoms: _388  and  _389
REMARK  165  A    between atoms: _392  and  _394
REMARK  166  A    between atoms: _394  and  _395
REMARK  167  A    between atoms: _394  and  _397
REMARK  168  A    between atoms: _397  and  _398
REMARK  169  A    between atoms: _401  and  _403
REMARK  170  A    between atoms: _403  and  _404
REMARK  171  A    between atoms: _403  and  _406
REMARK  172  A    between atoms: _406  and  _407
REMARK  173  A    between atoms: _407  and  _408
REMARK  174  A    between atoms: _410  and  _412
REMARK  175  A    between atoms: _412  and  _413
REMARK  176  A    between atoms: _412  and  _415
REMARK  177  A    between atoms: _415  and  _416
REMARK  178  A    between atoms: _416  and  _417
REMARK  179  A    between atoms: _420  and  _422
REMARK  180  A    between atoms: _422  and  _423
REMARK  181  A    between atoms: _422  and  _425
REMARK  182  A    between atoms: _425  and  _426
REMARK  183  A    between atoms: _428  and  _430
REMARK  184  A    between atoms: _430  and  _431
REMARK  185  A    between atoms: _430  and  _433
REMARK  186  A    between atoms: _433  and  _434
REMARK  187  A    between atoms: _437  and  _439
REMARK  188  A    between atoms: _439  and  _440
REMARK  189  A    between atoms: _439  and  _442
REMARK  190  A    between atoms: _442  and  _443
REMARK  191  A    between atoms: _446  and  _448
REMARK  192  A    between atoms: _448  and  _449
REMARK  193  A    between atoms: _448  and  _451
REMARK  194  A    between atoms: _451  and  _452
REMARK  195  A    between atoms: _455  and  _457
REMARK  196  A    between atoms: _457  and  _458
REMARK  197  A    between atoms: _457  and  _460
REMARK  198  A    between atoms: _460  and  _461
REMARK  199  A    between atoms: _464  and  _466
REMARK  200  A    between atoms: _466  and  _467
REMARK  201  A    between atoms: _466  and  _469
REMARK  202  A    between atoms: _469  and  _470
REMARK  203  A    between atoms: _470  and  _471
REMARK  204  A    between atoms: _471  and  _472
REMARK  205  A    between atoms: _472  and  _473
REMARK  206  A    between atoms: _477  and  _479
REMARK  207  A    between atoms: _479  and  _480
REMARK  208  A    between atoms: _482  and  _484
REMARK  209  A    between atoms: _484  and  _485
REMARK  210  A    between atoms: _484  and  _487
REMARK  211  A    between atoms: _487  and  _488
REMARK  212  A    between atoms: _493  and  _494
REMARK  213  A    between atoms: _496  and  _498
REMARK  214  A    between atoms: _498  and  _499
REMARK  215  A    between atoms: _501  and  _503
REMARK  216  A    between atoms: _503  and  _504
REMARK  217  A    between atoms: _503  and  _506
REMARK  218  A    between atoms: _506  and  _507
REMARK                            x       y       z     vdW  Elec       q    Type
REMARK                         _______ _______ _______ _____ _____    ______ ____
ROOT
ATOM      1  O   HOH     1      10.578  29.229  23.066  0.00  0.00    +0.000 OA
ENDROOT
TORSDOF 0
REMARK  Name = ../refined-set-2016/4nwc/4nwc_pocket.pdb
REMARK  218 active torsions:
REMARK  status: ('A' for Active; 'I' for Inactive)
REMARK    1  A    between atoms: _1  and  _3
REMARK    2  A    between atoms: _3  and  _4
REMARK    3  A    between atoms: _3  and  _6
REMARK    4  A    between atoms: _6  and  _7
REMARK    5  A    between atoms: _10  and  _12
REMARK    6  A    between atoms: _12  and  _13
REMARK    7  A    between atoms: _12  and  _15
REMARK    8  A    between atoms: _15  and  _16
REMARK    9  A    between atoms: _19  and  _21
REMARK   10  A    between atoms: _21  and  _22
REMARK   11  A    between atoms: _21  and  _24
REMARK   12  A    between atoms: _24  and  _25
REMARK   13  A    between atoms: _25  and  _26
REMARK   14  A    between atoms: _29  and  _31
REMARK   15  A    between atoms: _31  and  _32
REMARK   16  A    between atoms: _31  and  _34
REMARK   17  A    between atoms: _34  and  _35
REMARK   18  A    between atoms: _35  and  _36
REMARK   19  A    between atoms: _40  and  _41
REMARK   20  A    between atoms: _46  and  _48
REMARK   21  A    between atoms: _48  and  _49
REMARK   22  A    between atoms: _48  and  _51
REMARK   23  A    between atoms: _51  and  _52
REMARK   24  A    between atoms: _58  and  _60
REMARK   25  A    between atoms: _60  and  _61
REMARK   26  A    between atoms: _60  and  _63
REMARK   27  A    between atoms: _63  and  _64
REMARK   28  A    between atoms: _64  and  _65
REMARK   29  A    between atoms: _65  and  _66
REMARK   30  A    between atoms: _66  and  _67
REMARK   31  A    between atoms: _71  and  _73
REMARK   32  A    between atoms: _73  and  _74
REMARK   33  A    between atoms: _73  and  _76
REMARK   34  A    between atoms: _76  and  _77
REMARK   35  A    between atoms: _82  and  _83
REMARK   36  A    between atoms: _85  and  _87
REMARK   37  A    between atoms: _87  and  _88
REMARK   38  A    between atoms: _90  and  _92
REMARK   39  A    between atoms: _92  and  _93
REMARK   40  A    between atoms: _96  and  _98
REMARK   41  A    between atoms: _98  and  _99
REMARK   42  A    between atoms: _98  and  _101
REMARK   43  A    between atoms: _101  and  _102
REMARK   44  A    between atoms: _102  and  _103
REMARK   45  A    between atoms: _105  and  _107
REMARK   46  A    between atoms: _107  and  _108
REMARK   47  A    between atoms: _107  and  _110
REMARK   48  A    between atoms: _113  and  _115
REMARK   49  A    between atoms: _115  and  _116
REMARK   50  A    between atoms: _120  and  _121
REMARK   51  A    between atoms: _126  and  _128
REMARK   52  A    between atoms: _128  and  _129
REMARK   53  A    between atoms: _128  and  _131
REMARK   54  A    between atoms: _131  and  _132
REMARK   55  A    between atoms: _135  and  _137
REMARK   56  A    between atoms: _137  and  _138
REMARK   57  A    between atoms: _137  and  _140
REMARK   58  A    between atoms: _140  and  _141
REMARK   59  A    between atoms: _144  and  _146
REMARK   60  A    between atoms: _146  and  _147
REMARK   61  A    between atoms: _146  and  _149
REMARK   62  A    between atoms: _149  and  _150
REMARK   63  A    between atoms: _153  and  _155
REMARK   64  A    between atoms: _155  and  _156
REMARK   65  A    between atoms: _155  and  _158
REMARK   66  A    between atoms: _158  and  _159
REMARK   67  A    between atoms: _162  and  _164
REMARK   68  A    between atoms: _164  and  _165
REMARK   69  A    between atoms: _164  and  _167
REMARK   70  A    between atoms: _167  and  _168
REMARK   71  A    between atoms: _168  and  _169
REMARK   72  A    between atoms: _169  and  _170
REMARK   73  A    between atoms: _179  and  _181
REMARK   74  A    between atoms: _181  and  _182
REMARK   75  A    between atoms: _181  and  _184
REMARK   76  A    between atoms: _184  and  _185
REMARK   77  A    between atoms: _191  and  _193
REMARK   78  A    between atoms: _193  and  _194
REMARK   79  A    between atoms: _193  and  _196
REMARK   80  A    between atoms: _196  and  _197
REMARK   81  A    between atoms: _197  and  _198
REMARK   82  A    between atoms: _200  and  _202
REMARK   83  A    between atoms: _202  and  _203
REMARK   84  A    between atoms: _202  and  _205
REMARK   85  A    between atoms: _205  and  _206
REMARK   86  A    between atoms: _209  and  _211
REMARK   87  A    between atoms: _211  and  _212
REMARK   88  A    between atoms: _214  and  _216
REMARK   89  A    between atoms: _216  and  _217
REMARK   90  A    between atoms: _216  and  _219
REMARK   91  A    between atoms: _222  and  _224
REMARK   92  A    between atoms: _224  and  _225
REMARK   93  A    between atoms: _224  and  _227
REMARK   94  A    between atoms: _227  and  _228
REMARK   95  A    between atoms: _230  and  _232
REMARK   96  A    between atoms: _232  and  _233
REMARK   97  A    between atoms: _235  and  _237
REMARK   98  A    between atoms: _237  and  _238
REMARK   99  A    between atoms: _241  and  _243
REMARK  100  A    between atoms: _243  and  _244
REMARK  101  A    between atoms: _243  and  _246
REMARK  102  A    between atoms: _249  and  _251
REMARK  103  A    between atoms: _251  and  _252
REMARK  104  A    between atoms: _251  and  _254
REMARK  105  A    between atoms: _254  and  _255
REMARK  106  A    between atoms: _255  and  _256
REMARK  107  A    between atoms: _256  and  _257
REMARK  108  A    between atoms: _257  and  _258
REMARK  109  A    between atoms: _262  and  _264
REMARK  110  A    between atoms: _264  and  _265
REMARK  111  A    between atoms: _264  and  _267
REMARK  112  A    between atoms: _267  and  _268
REMARK  113  A    between atoms: _271  and  _273
REMARK  114  A    between atoms: _273  and  _274
REMARK  115  A    between atoms: _276  and  _278
REMARK  116  A    between atoms: _278  and  _279
REMARK  117  A    between atoms: _282  and  _284
REMARK  118  A    between atoms: _284  and  _285
REMARK  119  A    between atoms: _284  and  _287
REMARK  120  A    between atoms: _287  and  _288
REMARK  121  A    between atoms: _291  and  _293
REMARK  122  A    between atoms: _293  and  _294
REMARK  123  A    between atoms: _293  and  _296
REMARK  124  A    between atoms: _296  and  _297
REMARK  125  A    between atoms: _297  and  _298
REMARK  126  A    between atoms: _300  and  _302
REMARK  127  A    between atoms: _302  and  _303
REMARK  128  A    between atoms: _302  and  _305
REMARK  129  A    between atoms: _305  and  _306
REMARK  130  A    between atoms: _309  and  _311
REMARK  131  A    between atoms: _311  and  _312
REMARK  132  A    between atoms: _311  and  _314
REMARK  133  A    between atoms: _314  and  _315
REMARK  134  A    between atoms: _321  and  _323
REMARK  135  A    between atoms: _323  and  _324
REMARK  136  A    between atoms: _323  and  _326
REMARK  137  A    between atoms: _329  and  _331
REMARK  138  A    between atoms: _331  and  _332
REMARK  139  A    between atoms: _331  and  _334
REMARK  140  A    between atoms: _334  and  _335
REMARK  141  A    between atoms: _335  and  _336
REMARK  142  A    between atoms: _336  and  _337
REMARK  143  A    between atoms: _337  and  _338
REMARK  144  A    between atoms: _342  and  _344
REMARK  145  A    between atoms: _344  and  _345
REMARK  146  A    between atoms: _344  and  _347
REMARK  147  A    between atoms: _347  and  _348
REMARK  148  A    between atoms: _353  and  _355
REMARK  149  A    between atoms: _355  and  _356
REMARK  150  A    between atoms: _355  and  _358
REMARK  151  A    between atoms: _358  and  _359
REMARK  152  A    between atoms: _364  and  _366
REMARK  153  A    between atoms: _366  and  _367
REMARK  154  A    between atoms: _366  and  _369
REMARK  155  A    between atoms: _369  and  _370
REMARK  156  A    between atoms: _370  and  _371
REMARK  157  A    between atoms: _374  and  _376
REMARK  158  A    between atoms: _376  and  _377
REMARK  159  A    between atoms: _376  and  _379
REMARK  160  A    between atoms: _379  and  _380
REMARK  161  A    between atoms: _383  and  _385
REMARK  162  A    between atoms: _385  and  _386
REMARK  163  A    between atoms: _385  and  _388
REMARK  164  A    between atoms: _388  and  _389
REMARK  165  A    between atoms: _392  and  _394
REMARK  166  A    between atoms: _394  and  _395
REMARK  167  A    between atoms: _394  and  _397
REMARK  168  A    between atoms: _397  and  _398
REMARK  169  A    between atoms: _401  and  _403
REMARK  170  A    between atoms: _403  and  _404
REMARK  171  A    between atoms: _403  and  _406
REMARK  172  A    between atoms: _406  and  _407
REMARK  173  A    between atoms: _407  and  _408
REMARK  174  A    between atoms: _410  and  _412
REMARK  175  A    between atoms: _412  and  _413
REMARK  176  A    between atoms: _412  and  _415
REMARK  177  A    between atoms: _415  and  _416
REMARK  178  A    between atoms: _416  and  _417
REMARK  179  A    between atoms: _420  and  _422
REMARK  180  A    between atoms: _422  and  _423
REMARK  181  A    between atoms: _422  and  _425
REMARK  182  A    between atoms: _425  and  _426
REMARK  183  A    between atoms: _428  and  _430
REMARK  184  A    between atoms: _430  and  _431
REMARK  185  A    between atoms: _430  and  _433
REMARK  186  A    between atoms: _433  and  _434
REMARK  187  A    between atoms: _437  and  _439
REMARK  188  A    between atoms: _439  and  _440
REMARK  189  A    between atoms: _439  and  _442
REMARK  190  A    between atoms: _442  and  _443
REMARK  191  A    between atoms: _446  and  _448
REMARK  192  A    between atoms: _448  and  _449
REMARK  193  A    between atoms: _448  and  _451
REMARK  194  A    between atoms: _451  and  _452
REMARK  195  A    between atoms: _455  and  _457
REMARK  196  A    between atoms: _457  and  _458
REMARK  197  A    between atoms: _457  and  _460
REMARK  198  A    between atoms: _460  and  _461
REMARK  199  A    between atoms: _464  and  _466
REMARK  200  A    between atoms: _466  and  _467
REMARK  201  A    between atoms: _466  and  _469
REMARK  202  A    between atoms: _469  and  _470
REMARK  203  A    between atoms: _470  and  _471
REMARK  204  A    between atoms: _471  and  _472
REMARK  205  A    between atoms: _472  and  _473
REMARK  206  A    between atoms: _477  and  _479
REMARK  207  A    between atoms: _479  and  _480
REMARK  208  A    between atoms: _482  and  _484
REMARK  209  A    between atoms: _484  and  _485
REMARK  210  A    between atoms: _484  and  _487
REMARK  211  A    between atoms: _487  and  _488
REMARK  212  A    between atoms: _493  and  _494
REMARK  213  A    between atoms: _496  and  _498
REMARK  214  A    between atoms: _498  and  _499
REMARK  215  A    between atoms: _501  and  _503
REMARK  216  A    between atoms: _503  and  _504
REMARK  217  A    between atoms: _503  and  _506
REMARK  218  A    between atoms: _506  and  _507
REMARK                            x       y       z     vdW  Elec       q    Type
REMARK                         _______ _______ _______ _____ _____    ______ ____
ROOT
ATOM      1  O   HOH     1      11.232  27.802  12.319  0.00  0.00    +0.000 OA
ENDROOT
TORSDOF 0
REMARK  Name = ../refined-set-2016/4nwc/4nwc_pocket.pdb
REMARK  218 active torsions:
REMARK  status: ('A' for Active; 'I' for Inactive)
REMARK    1  A    between atoms: _1  and  _3
REMARK    2  A    between atoms: _3  and  _4
REMARK    3  A    between atoms: _3  and  _6
REMARK    4  A    between atoms: _6  and  _7
REMARK    5  A    between atoms: _10  and  _12
REMARK    6  A    between atoms: _12  and  _13
REMARK    7  A    between atoms: _12  and  _15
REMARK    8  A    between atoms: _15  and  _16
REMARK    9  A    between atoms: _19  and  _21
REMARK   10  A    between atoms: _21  and  _22
REMARK   11  A    between atoms: _21  and  _24
REMARK   12  A    between atoms: _24  and  _25
REMARK   13  A    between atoms: _25  and  _26
REMARK   14  A    between atoms: _29  and  _31
REMARK   15  A    between atoms: _31  and  _32
REMARK   16  A    between atoms: _31  and  _34
REMARK   17  A    between atoms: _34  and  _35
REMARK   18  A    between atoms: _35  and  _36
REMARK   19  A    between atoms: _40  and  _41
REMARK   20  A    between atoms: _46  and  _48
REMARK   21  A    between atoms: _48  and  _49
REMARK   22  A    between atoms: _48  and  _51
REMARK   23  A    between atoms: _51  and  _52
REMARK   24  A    between atoms: _58  and  _60
REMARK   25  A    between atoms: _60  and  _61
REMARK   26  A    between atoms: _60  and  _63
REMARK   27  A    between atoms: _63  and  _64
REMARK   28  A    between atoms: _64  and  _65
REMARK   29  A    between atoms: _65  and  _66
REMARK   30  A    between atoms: _66  and  _67
REMARK   31  A    between atoms: _71  and  _73
REMARK   32  A    between atoms: _73  and  _74
REMARK   33  A    between atoms: _73  and  _76
REMARK   34  A    between atoms: _76  and  _77
REMARK   35  A    between atoms: _82  and  _83
REMARK   36  A    between atoms: _85  and  _87
REMARK   37  A    between atoms: _87  and  _88
REMARK   38  A    between atoms: _90  and  _92
REMARK   39  A    between atoms: _92  and  _93
REMARK   40  A    between atoms: _96  and  _98
REMARK   41  A    between atoms: _98  and  _99
REMARK   42  A    between atoms: _98  and  _101
REMARK   43  A    between atoms: _101  and  _102
REMARK   44  A    between atoms: _102  and  _103
REMARK   45  A    between atoms: _105  and  _107
REMARK   46  A    between atoms: _107  and  _108
REMARK   47  A    between atoms: _107  and  _110
REMARK   48  A    between atoms: _113  and  _115
REMARK   49  A    between atoms: _115  and  _116
REMARK   50  A    between atoms: _120  and  _121
REMARK   51  A    between atoms: _126  and  _128
REMARK   52  A    between atoms: _128  and  _129
REMARK   53  A    between atoms: _128  and  _131
REMARK   54  A    between atoms: _131  and  _132
REMARK   55  A    between atoms: _135  and  _137
REMARK   56  A    between atoms: _137  and  _138
REMARK   57  A    between atoms: _137  and  _140
REMARK   58  A    between atoms: _140  and  _141
REMARK   59  A    between atoms: _144  and  _146
REMARK   60  A    between atoms: _146  and  _147
REMARK   61  A    between atoms: _146  and  _149
REMARK   62  A    between atoms: _149  and  _150
REMARK   63  A    between atoms: _153  and  _155
REMARK   64  A    between atoms: _155  and  _156
REMARK   65  A    between atoms: _155  and  _158
REMARK   66  A    between atoms: _158  and  _159
REMARK   67  A    between atoms: _162  and  _164
REMARK   68  A    between atoms: _164  and  _165
REMARK   69  A    between atoms: _164  and  _167
REMARK   70  A    between atoms: _167  and  _168
REMARK   71  A    between atoms: _168  and  _169
REMARK   72  A    between atoms: _169  and  _170
REMARK   73  A    between atoms: _179  and  _181
REMARK   74  A    between atoms: _181  and  _182
REMARK   75  A    between atoms: _181  and  _184
REMARK   76  A    between atoms: _184  and  _185
REMARK   77  A    between atoms: _191  and  _193
REMARK   78  A    between atoms: _193  and  _194
REMARK   79  A    between atoms: _193  and  _196
REMARK   80  A    between atoms: _196  and  _197
REMARK   81  A    between atoms: _197  and  _198
REMARK   82  A    between atoms: _200  and  _202
REMARK   83  A    between atoms: _202  and  _203
REMARK   84  A    between atoms: _202  and  _205
REMARK   85  A    between atoms: _205  and  _206
REMARK   86  A    between atoms: _209  and  _211
REMARK   87  A    between atoms: _211  and  _212
REMARK   88  A    between atoms: _214  and  _216
REMARK   89  A    between atoms: _216  and  _217
REMARK   90  A    between atoms: _216  and  _219
REMARK   91  A    between atoms: _222  and  _224
REMARK   92  A    between atoms: _224  and  _225
REMARK   93  A    between atoms: _224  and  _227
REMARK   94  A    between atoms: _227  and  _228
REMARK   95  A    between atoms: _230  and  _232
REMARK   96  A    between atoms: _232  and  _233
REMARK   97  A    between atoms: _235  and  _237
REMARK   98  A    between atoms: _237  and  _238
REMARK   99  A    between atoms: _241  and  _243
REMARK  100  A    between atoms: _243  and  _244
REMARK  101  A    between atoms: _243  and  _246
REMARK  102  A    between atoms: _249  and  _251
REMARK  103  A    between atoms: _251  and  _252
REMARK  104  A    between atoms: _251  and  _254
REMARK  105  A    between atoms: _254  and  _255
REMARK  106  A    between atoms: _255  and  _256
REMARK  107  A    between atoms: _256  and  _257
REMARK  108  A    between atoms: _257  and  _258
REMARK  109  A    between atoms: _262  and  _264
REMARK  110  A    between atoms: _264  and  _265
REMARK  111  A    between atoms: _264  and  _267
REMARK  112  A    between atoms: _267  and  _268
REMARK  113  A    between atoms: _271  and  _273
REMARK  114  A    between atoms: _273  and  _274
REMARK  115  A    between atoms: _276  and  _278
REMARK  116  A    between atoms: _278  and  _279
REMARK  117  A    between atoms: _282  and  _284
REMARK  118  A    between atoms: _284  and  _285
REMARK  119  A    between atoms: _284  and  _287
REMARK  120  A    between atoms: _287  and  _288
REMARK  121  A    between atoms: _291  and  _293
REMARK  122  A    between atoms: _293  and  _294
REMARK  123  A    between atoms: _293  and  _296
REMARK  124  A    between atoms: _296  and  _297
REMARK  125  A    between atoms: _297  and  _298
REMARK  126  A    between atoms: _300  and  _302
REMARK  127  A    between atoms: _302  and  _303
REMARK  128  A    between atoms: _302  and  _305
REMARK  129  A    between atoms: _305  and  _306
REMARK  130  A    between atoms: _309  and  _311
REMARK  131  A    between atoms: _311  and  _312
REMARK  132  A    between atoms: _311  and  _314
REMARK  133  A    between atoms: _314  and  _315
REMARK  134  A    between atoms: _321  and  _323
REMARK  135  A    between atoms: _323  and  _324
REMARK  136  A    between atoms: _323  and  _326
REMARK  137  A    between atoms: _329  and  _331
REMARK  138  A    between atoms: _331  and  _332
REMARK  139  A    between atoms: _331  and  _334
REMARK  140  A    between atoms: _334  and  _335
REMARK  141  A    between atoms: _335  and  _336
REMARK  142  A    between atoms: _336  and  _337
REMARK  143  A    between atoms: _337  and  _338
REMARK  144  A    between atoms: _342  and  _344
REMARK  145  A    between atoms: _344  and  _345
REMARK  146  A    between atoms: _344  and  _347
REMARK  147  A    between atoms: _347  and  _348
REMARK  148  A    between atoms: _353  and  _355
REMARK  149  A    between atoms: _355  and  _356
REMARK  150  A    between atoms: _355  and  _358
REMARK  151  A    between atoms: _358  and  _359
REMARK  152  A    between atoms: _364  and  _366
REMARK  153  A    between atoms: _366  and  _367
REMARK  154  A    between atoms: _366  and  _369
REMARK  155  A    between atoms: _369  and  _370
REMARK  156  A    between atoms: _370  and  _371
REMARK  157  A    between atoms: _374  and  _376
REMARK  158  A    between atoms: _376  and  _377
REMARK  159  A    between atoms: _376  and  _379
REMARK  160  A    between atoms: _379  and  _380
REMARK  161  A    between atoms: _383  and  _385
REMARK  162  A    between atoms: _385  and  _386
REMARK  163  A    between atoms: _385  and  _388
REMARK  164  A    between atoms: _388  and  _389
REMARK  165  A    between atoms: _392  and  _394
REMARK  166  A    between atoms: _394  and  _395
REMARK  167  A    between atoms: _394  and  _397
REMARK  168  A    between atoms: _397  and  _398
REMARK  169  A    between atoms: _401  and  _403
REMARK  170  A    between atoms: _403  and  _404
REMARK  171  A    between atoms: _403  and  _406
REMARK  172  A    between atoms: _406  and  _407
REMARK  173  A    between atoms: _407  and  _408
REMARK  174  A    between atoms: _410  and  _412
REMARK  175  A    between atoms: _412  and  _413
REMARK  176  A    between atoms: _412  and  _415
REMARK  177  A    between atoms: _415  and  _416
REMARK  178  A    between atoms: _416  and  _417
REMARK  179  A    between atoms: _420  and  _422
REMARK  180  A    between atoms: _422  and  _423
REMARK  181  A    between atoms: _422  and  _425
REMARK  182  A    between atoms: _425  and  _426
REMARK  183  A    between atoms: _428  and  _430
REMARK  184  A    between atoms: _430  and  _431
REMARK  185  A    between atoms: _430  and  _433
REMARK  186  A    between atoms: _433  and  _434
REMARK  187  A    between atoms: _437  and  _439
REMARK  188  A    between atoms: _439  and  _440
REMARK  189  A    between atoms: _439  and  _442
REMARK  190  A    between atoms: _442  and  _443
REMARK  191  A    between atoms: _446  and  _448
REMARK  192  A    between atoms: _448  and  _449
REMARK  193  A    between atoms: _448  and  _451
REMARK  194  A    between atoms: _451  and  _452
REMARK  195  A    between atoms: _455  and  _457
REMARK  196  A    between atoms: _457  and  _458
REMARK  197  A    between atoms: _457  and  _460
REMARK  198  A    between atoms: _460  and  _461
REMARK  199  A    between atoms: _464  and  _466
REMARK  200  A    between atoms: _466  and  _467
REMARK  201  A    between atoms: _466  and  _469
REMARK  202  A    between atoms: _469  and  _470
REMARK  203  A    between atoms: _470  and  _471
REMARK  204  A    between atoms: _471  and  _472
REMARK  205  A    between atoms: _472  and  _473
REMARK  206  A    between atoms: _477  and  _479
REMARK  207  A    between atoms: _479  and  _480
REMARK  208  A    between atoms: _482  and  _484
REMARK  209  A    between atoms: _484  and  _485
REMARK  210  A    between atoms: _484  and  _487
REMARK  211  A    between atoms: _487  and  _488
REMARK  212  A    between atoms: _493  and  _494
REMARK  213  A    between atoms: _496  and  _498
REMARK  214  A    between atoms: _498  and  _499
REMARK  215  A    between atoms: _501  and  _503
REMARK  216  A    between atoms: _503  and  _504
REMARK  217  A    between atoms: _503  and  _506
REMARK  218  A    between atoms: _506  and  _507
REMARK                            x       y       z     vdW  Elec       q    Type
REMARK                         _______ _______ _______ _____ _____    ______ ____
ROOT
ATOM      1  O   HOH     1       4.596  28.714  20.818  0.00  0.00    +0.000 OA
ENDROOT
TORSDOF 0
REMARK  Name = ../refined-set-2016/4nwc/4nwc_pocket.pdb
REMARK  218 active torsions:
REMARK  status: ('A' for Active; 'I' for Inactive)
REMARK    1  A    between atoms: _1  and  _3
REMARK    2  A    between atoms: _3  and  _4
REMARK    3  A    between atoms: _3  and  _6
REMARK    4  A    between atoms: _6  and  _7
REMARK    5  A    between atoms: _10  and  _12
REMARK    6  A    between atoms: _12  and  _13
REMARK    7  A    between atoms: _12  and  _15
REMARK    8  A    between atoms: _15  and  _16
REMARK    9  A    between atoms: _19  and  _21
REMARK   10  A    between atoms: _21  and  _22
REMARK   11  A    between atoms: _21  and  _24
REMARK   12  A    between atoms: _24  and  _25
REMARK   13  A    between atoms: _25  and  _26
REMARK   14  A    between atoms: _29  and  _31
REMARK   15  A    between atoms: _31  and  _32
REMARK   16  A    between atoms: _31  and  _34
REMARK   17  A    between atoms: _34  and  _35
REMARK   18  A    between atoms: _35  and  _36
REMARK   19  A    between atoms: _40  and  _41
REMARK   20  A    between atoms: _46  and  _48
REMARK   21  A    between atoms: _48  and  _49
REMARK   22  A    between atoms: _48  and  _51
REMARK   23  A    between atoms: _51  and  _52
REMARK   24  A    between atoms: _58  and  _60
REMARK   25  A    between atoms: _60  and  _61
REMARK   26  A    between atoms: _60  and  _63
REMARK   27  A    between atoms: _63  and  _64
REMARK   28  A    between atoms: _64  and  _65
REMARK   29  A    between atoms: _65  and  _66
REMARK   30  A    between atoms: _66  and  _67
REMARK   31  A    between atoms: _71  and  _73
REMARK   32  A    between atoms: _73  and  _74
REMARK   33  A    between atoms: _73  and  _76
REMARK   34  A    between atoms: _76  and  _77
REMARK   35  A    between atoms: _82  and  _83
REMARK   36  A    between atoms: _85  and  _87
REMARK   37  A    between atoms: _87  and  _88
REMARK   38  A    between atoms: _90  and  _92
REMARK   39  A    between atoms: _92  and  _93
REMARK   40  A    between atoms: _96  and  _98
REMARK   41  A    between atoms: _98  and  _99
REMARK   42  A    between atoms: _98  and  _101
REMARK   43  A    between atoms: _101  and  _102
REMARK   44  A    between atoms: _102  and  _103
REMARK   45  A    between atoms: _105  and  _107
REMARK   46  A    between atoms: _107  and  _108
REMARK   47  A    between atoms: _107  and  _110
REMARK   48  A    between atoms: _113  and  _115
REMARK   49  A    between atoms: _115  and  _116
REMARK   50  A    between atoms: _120  and  _121
REMARK   51  A    between atoms: _126  and  _128
REMARK   52  A    between atoms: _128  and  _129
REMARK   53  A    between atoms: _128  and  _131
REMARK   54  A    between atoms: _131  and  _132
REMARK   55  A    between atoms: _135  and  _137
REMARK   56  A    between atoms: _137  and  _138
REMARK   57  A    between atoms: _137  and  _140
REMARK   58  A    between atoms: _140  and  _141
REMARK   59  A    between atoms: _144  and  _146
REMARK   60  A    between atoms: _146  and  _147
REMARK   61  A    between atoms: _146  and  _149
REMARK   62  A    between atoms: _149  and  _150
REMARK   63  A    between atoms: _153  and  _155
REMARK   64  A    between atoms: _155  and  _156
REMARK   65  A    between atoms: _155  and  _158
REMARK   66  A    between atoms: _158  and  _159
REMARK   67  A    between atoms: _162  and  _164
REMARK   68  A    between atoms: _164  and  _165
REMARK   69  A    between atoms: _164  and  _167
REMARK   70  A    between atoms: _167  and  _168
REMARK   71  A    between atoms: _168  and  _169
REMARK   72  A    between atoms: _169  and  _170
REMARK   73  A    between atoms: _179  and  _181
REMARK   74  A    between atoms: _181  and  _182
REMARK   75  A    between atoms: _181  and  _184
REMARK   76  A    between atoms: _184  and  _185
REMARK   77  A    between atoms: _191  and  _193
REMARK   78  A    between atoms: _193  and  _194
REMARK   79  A    between atoms: _193  and  _196
REMARK   80  A    between atoms: _196  and  _197
REMARK   81  A    between atoms: _197  and  _198
REMARK   82  A    between atoms: _200  and  _202
REMARK   83  A    between atoms: _202  and  _203
REMARK   84  A    between atoms: _202  and  _205
REMARK   85  A    between atoms: _205  and  _206
REMARK   86  A    between atoms: _209  and  _211
REMARK   87  A    between atoms: _211  and  _212
REMARK   88  A    between atoms: _214  and  _216
REMARK   89  A    between atoms: _216  and  _217
REMARK   90  A    between atoms: _216  and  _219
REMARK   91  A    between atoms: _222  and  _224
REMARK   92  A    between atoms: _224  and  _225
REMARK   93  A    between atoms: _224  and  _227
REMARK   94  A    between atoms: _227  and  _228
REMARK   95  A    between atoms: _230  and  _232
REMARK   96  A    between atoms: _232  and  _233
REMARK   97  A    between atoms: _235  and  _237
REMARK   98  A    between atoms: _237  and  _238
REMARK   99  A    between atoms: _241  and  _243
REMARK  100  A    between atoms: _243  and  _244
REMARK  101  A    between atoms: _243  and  _246
REMARK  102  A    between atoms: _249  and  _251
REMARK  103  A    between atoms: _251  and  _252
REMARK  104  A    between atoms: _251  and  _254
REMARK  105  A    between atoms: _254  and  _255
REMARK  106  A    between atoms: _255  and  _256
REMARK  107  A    between atoms: _256  and  _257
REMARK  108  A    between atoms: _257  and  _258
REMARK  109  A    between atoms: _262  and  _264
REMARK  110  A    between atoms: _264  and  _265
REMARK  111  A    between atoms: _264  and  _267
REMARK  112  A    between atoms: _267  and  _268
REMARK  113  A    between atoms: _271  and  _273
REMARK  114  A    between atoms: _273  and  _274
REMARK  115  A    between atoms: _276  and  _278
REMARK  116  A    between atoms: _278  and  _279
REMARK  117  A    between atoms: _282  and  _284
REMARK  118  A    between atoms: _284  and  _285
REMARK  119  A    between atoms: _284  and  _287
REMARK  120  A    between atoms: _287  and  _288
REMARK  121  A    between atoms: _291  and  _293
REMARK  122  A    between atoms: _293  and  _294
REMARK  123  A    between atoms: _293  and  _296
REMARK  124  A    between atoms: _296  and  _297
REMARK  125  A    between atoms: _297  and  _298
REMARK  126  A    between atoms: _300  and  _302
REMARK  127  A    between atoms: _302  and  _303
REMARK  128  A    between atoms: _302  and  _305
REMARK  129  A    between atoms: _305  and  _306
REMARK  130  A    between atoms: _309  and  _311
REMARK  131  A    between atoms: _311  and  _312
REMARK  132  A    between atoms: _311  and  _314
REMARK  133  A    between atoms: _314  and  _315
REMARK  134  A    between atoms: _321  and  _323
REMARK  135  A    between atoms: _323  and  _324
REMARK  136  A    between atoms: _323  and  _326
REMARK  137  A    between atoms: _329  and  _331
REMARK  138  A    between atoms: _331  and  _332
REMARK  139  A    between atoms: _331  and  _334
REMARK  140  A    between atoms: _334  and  _335
REMARK  141  A    between atoms: _335  and  _336
REMARK  142  A    between atoms: _336  and  _337
REMARK  143  A    between atoms: _337  and  _338
REMARK  144  A    between atoms: _342  and  _344
REMARK  145  A    between atoms: _344  and  _345
REMARK  146  A    between atoms: _344  and  _347
REMARK  147  A    between atoms: _347  and  _348
REMARK  148  A    between atoms: _353  and  _355
REMARK  149  A    between atoms: _355  and  _356
REMARK  150  A    between atoms: _355  and  _358
REMARK  151  A    between atoms: _358  and  _359
REMARK  152  A    between atoms: _364  and  _366
REMARK  153  A    between atoms: _366  and  _367
REMARK  154  A    between atoms: _366  and  _369
REMARK  155  A    between atoms: _369  and  _370
REMARK  156  A    between atoms: _370  and  _371
REMARK  157  A    between atoms: _374  and  _376
REMARK  158  A    between atoms: _376  and  _377
REMARK  159  A    between atoms: _376  and  _379
REMARK  160  A    between atoms: _379  and  _380
REMARK  161  A    between atoms: _383  and  _385
REMARK  162  A    between atoms: _385  and  _386
REMARK  163  A    between atoms: _385  and  _388
REMARK  164  A    between atoms: _388  and  _389
REMARK  165  A    between atoms: _392  and  _394
REMARK  166  A    between atoms: _394  and  _395
REMARK  167  A    between atoms: _394  and  _397
REMARK  168  A    between atoms: _397  and  _398
REMARK  169  A    between atoms: _401  and  _403
REMARK  170  A    between atoms: _403  and  _404
REMARK  171  A    between atoms: _403  and  _406
REMARK  172  A    between atoms: _406  and  _407
REMARK  173  A    between atoms: _407  and  _408
REMARK  174  A    between atoms: _410  and  _412
REMARK  175  A    between atoms: _412  and  _413
REMARK  176  A    between atoms: _412  and  _415
REMARK  177  A    between atoms: _415  and  _416
REMARK  178  A    between atoms: _416  and  _417
REMARK  179  A    between atoms: _420  and  _422
REMARK  180  A    between atoms: _422  and  _423
REMARK  181  A    between atoms: _422  and  _425
REMARK  182  A    between atoms: _425  and  _426
REMARK  183  A    between atoms: _428  and  _430
REMARK  184  A    between atoms: _430  and  _431
REMARK  185  A    between atoms: _430  and  _433
REMARK  186  A    between atoms: _433  and  _434
REMARK  187  A    between atoms: _437  and  _439
REMARK  188  A    between atoms: _439  and  _440
REMARK  189  A    between atoms: _439  and  _442
REMARK  190  A    between atoms: _442  and  _443
REMARK  191  A    between atoms: _446  and  _448
REMARK  192  A    between atoms: _448  and  _449
REMARK  193  A    between atoms: _448  and  _451
REMARK  194  A    between atoms: _451  and  _452
REMARK  195  A    between atoms: _455  and  _457
REMARK  196  A    between atoms: _457  and  _458
REMARK  197  A    between atoms: _457  and  _460
REMARK  198  A    between atoms: _460  and  _461
REMARK  199  A    between atoms: _464  and  _466
REMARK  200  A    between atoms: _466  and  _467
REMARK  201  A    between atoms: _466  and  _469
REMARK  202  A    between atoms: _469  and  _470
REMARK  203  A    between atoms: _470  and  _471
REMARK  204  A    between atoms: _471  and  _472
REMARK  205  A    between atoms: _472  and  _473
REMARK  206  A    between atoms: _477  and  _479
REMARK  207  A    between atoms: _479  and  _480
REMARK  208  A    between atoms: _482  and  _484
REMARK  209  A    between atoms: _484  and  _485
REMARK  210  A    between atoms: _484  and  _487
REMARK  211  A    between atoms: _487  and  _488
REMARK  212  A    between atoms: _493  and  _494
REMARK  213  A    between atoms: _496  and  _498
REMARK  214  A    between atoms: _498  and  _499
REMARK  215  A    between atoms: _501  and  _503
REMARK  216  A    between atoms: _503  and  _504
REMARK  217  A    between atoms: _503  and  _506
REMARK  218  A    between atoms: _506  and  _507
REMARK                            x       y       z     vdW  Elec       q    Type
REMARK                         _______ _______ _______ _____ _____    ______ ____
ROOT
ATOM      1  O   HOH     1      11.584  26.821  22.929  0.00  0.00    +0.000 OA
ENDROOT
TORSDOF 0
REMARK  Name = ../refined-set-2016/4nwc/4nwc_pocket.pdb
REMARK  218 active torsions:
REMARK  status: ('A' for Active; 'I' for Inactive)
REMARK    1  A    between atoms: _1  and  _3
REMARK    2  A    between atoms: _3  and  _4
REMARK    3  A    between atoms: _3  and  _6
REMARK    4  A    between atoms: _6  and  _7
REMARK    5  A    between atoms: _10  and  _12
REMARK    6  A    between atoms: _12  and  _13
REMARK    7  A    between atoms: _12  and  _15
REMARK    8  A    between atoms: _15  and  _16
REMARK    9  A    between atoms: _19  and  _21
REMARK   10  A    between atoms: _21  and  _22
REMARK   11  A    between atoms: _21  and  _24
REMARK   12  A    between atoms: _24  and  _25
REMARK   13  A    between atoms: _25  and  _26
REMARK   14  A    between atoms: _29  and  _31
REMARK   15  A    between atoms: _31  and  _32
REMARK   16  A    between atoms: _31  and  _34
REMARK   17  A    between atoms: _34  and  _35
REMARK   18  A    between atoms: _35  and  _36
REMARK   19  A    between atoms: _40  and  _41
REMARK   20  A    between atoms: _46  and  _48
REMARK   21  A    between atoms: _48  and  _49
REMARK   22  A    between atoms: _48  and  _51
REMARK   23  A    between atoms: _51  and  _52
REMARK   24  A    between atoms: _58  and  _60
REMARK   25  A    between atoms: _60  and  _61
REMARK   26  A    between atoms: _60  and  _63
REMARK   27  A    between atoms: _63  and  _64
REMARK   28  A    between atoms: _64  and  _65
REMARK   29  A    between atoms: _65  and  _66
REMARK   30  A    between atoms: _66  and  _67
REMARK   31  A    between atoms: _71  and  _73
REMARK   32  A    between atoms: _73  and  _74
REMARK   33  A    between atoms: _73  and  _76
REMARK   34  A    between atoms: _76  and  _77
REMARK   35  A    between atoms: _82  and  _83
REMARK   36  A    between atoms: _85  and  _87
REMARK   37  A    between atoms: _87  and  _88
REMARK   38  A    between atoms: _90  and  _92
REMARK   39  A    between atoms: _92  and  _93
REMARK   40  A    between atoms: _96  and  _98
REMARK   41  A    between atoms: _98  and  _99
REMARK   42  A    between atoms: _98  and  _101
REMARK   43  A    between atoms: _101  and  _102
REMARK   44  A    between atoms: _102  and  _103
REMARK   45  A    between atoms: _105  and  _107
REMARK   46  A    between atoms: _107  and  _108
REMARK   47  A    between atoms: _107  and  _110
REMARK   48  A    between atoms: _113  and  _115
REMARK   49  A    between atoms: _115  and  _116
REMARK   50  A    between atoms: _120  and  _121
REMARK   51  A    between atoms: _126  and  _128
REMARK   52  A    between atoms: _128  and  _129
REMARK   53  A    between atoms: _128  and  _131
REMARK   54  A    between atoms: _131  and  _132
REMARK   55  A    between atoms: _135  and  _137
REMARK   56  A    between atoms: _137  and  _138
REMARK   57  A    between atoms: _137  and  _140
REMARK   58  A    between atoms: _140  and  _141
REMARK   59  A    between atoms: _144  and  _146
REMARK   60  A    between atoms: _146  and  _147
REMARK   61  A    between atoms: _146  and  _149
REMARK   62  A    between atoms: _149  and  _150
REMARK   63  A    between atoms: _153  and  _155
REMARK   64  A    between atoms: _155  and  _156
REMARK   65  A    between atoms: _155  and  _158
REMARK   66  A    between atoms: _158  and  _159
REMARK   67  A    between atoms: _162  and  _164
REMARK   68  A    between atoms: _164  and  _165
REMARK   69  A    between atoms: _164  and  _167
REMARK   70  A    between atoms: _167  and  _168
REMARK   71  A    between atoms: _168  and  _169
REMARK   72  A    between atoms: _169  and  _170
REMARK   73  A    between atoms: _179  and  _181
REMARK   74  A    between atoms: _181  and  _182
REMARK   75  A    between atoms: _181  and  _184
REMARK   76  A    between atoms: _184  and  _185
REMARK   77  A    between atoms: _191  and  _193
REMARK   78  A    between atoms: _193  and  _194
REMARK   79  A    between atoms: _193  and  _196
REMARK   80  A    between atoms: _196  and  _197
REMARK   81  A    between atoms: _197  and  _198
REMARK   82  A    between atoms: _200  and  _202
REMARK   83  A    between atoms: _202  and  _203
REMARK   84  A    between atoms: _202  and  _205
REMARK   85  A    between atoms: _205  and  _206
REMARK   86  A    between atoms: _209  and  _211
REMARK   87  A    between atoms: _211  and  _212
REMARK   88  A    between atoms: _214  and  _216
REMARK   89  A    between atoms: _216  and  _217
REMARK   90  A    between atoms: _216  and  _219
REMARK   91  A    between atoms: _222  and  _224
REMARK   92  A    between atoms: _224  and  _225
REMARK   93  A    between atoms: _224  and  _227
REMARK   94  A    between atoms: _227  and  _228
REMARK   95  A    between atoms: _230  and  _232
REMARK   96  A    between atoms: _232  and  _233
REMARK   97  A    between atoms: _235  and  _237
REMARK   98  A    between atoms: _237  and  _238
REMARK   99  A    between atoms: _241  and  _243
REMARK  100  A    between atoms: _243  and  _244
REMARK  101  A    between atoms: _243  and  _246
REMARK  102  A    between atoms: _249  and  _251
REMARK  103  A    between atoms: _251  and  _252
REMARK  104  A    between atoms: _251  and  _254
REMARK  105  A    between atoms: _254  and  _255
REMARK  106  A    between atoms: _255  and  _256
REMARK  107  A    between atoms: _256  and  _257
REMARK  108  A    between atoms: _257  and  _258
REMARK  109  A    between atoms: _262  and  _264
REMARK  110  A    between atoms: _264  and  _265
REMARK  111  A    between atoms: _264  and  _267
REMARK  112  A    between atoms: _267  and  _268
REMARK  113  A    between atoms: _271  and  _273
REMARK  114  A    between atoms: _273  and  _274
REMARK  115  A    between atoms: _276  and  _278
REMARK  116  A    between atoms: _278  and  _279
REMARK  117  A    between atoms: _282  and  _284
REMARK  118  A    between atoms: _284  and  _285
REMARK  119  A    between atoms: _284  and  _287
REMARK  120  A    between atoms: _287  and  _288
REMARK  121  A    between atoms: _291  and  _293
REMARK  122  A    between atoms: _293  and  _294
REMARK  123  A    between atoms: _293  and  _296
REMARK  124  A    between atoms: _296  and  _297
REMARK  125  A    between atoms: _297  and  _298
REMARK  126  A    between atoms: _300  and  _302
REMARK  127  A    between atoms: _302  and  _303
REMARK  128  A    between atoms: _302  and  _305
REMARK  129  A    between atoms: _305  and  _306
REMARK  130  A    between atoms: _309  and  _311
REMARK  131  A    between atoms: _311  and  _312
REMARK  132  A    between atoms: _311  and  _314
REMARK  133  A    between atoms: _314  and  _315
REMARK  134  A    between atoms: _321  and  _323
REMARK  135  A    between atoms: _323  and  _324
REMARK  136  A    between atoms: _323  and  _326
REMARK  137  A    between atoms: _329  and  _331
REMARK  138  A    between atoms: _331  and  _332
REMARK  139  A    between atoms: _331  and  _334
REMARK  140  A    between atoms: _334  and  _335
REMARK  141  A    between atoms: _335  and  _336
REMARK  142  A    between atoms: _336  and  _337
REMARK  143  A    between atoms: _337  and  _338
REMARK  144  A    between atoms: _342  and  _344
REMARK  145  A    between atoms: _344  and  _345
REMARK  146  A    between atoms: _344  and  _347
REMARK  147  A    between atoms: _347  and  _348
REMARK  148  A    between atoms: _353  and  _355
REMARK  149  A    between atoms: _355  and  _356
REMARK  150  A    between atoms: _355  and  _358
REMARK  151  A    between atoms: _358  and  _359
REMARK  152  A    between atoms: _364  and  _366
REMARK  153  A    between atoms: _366  and  _367
REMARK  154  A    between atoms: _366  and  _369
REMARK  155  A    between atoms: _369  and  _370
REMARK  156  A    between atoms: _370  and  _371
REMARK  157  A    between atoms: _374  and  _376
REMARK  158  A    between atoms: _376  and  _377
REMARK  159  A    between atoms: _376  and  _379
REMARK  160  A    between atoms: _379  and  _380
REMARK  161  A    between atoms: _383  and  _385
REMARK  162  A    between atoms: _385  and  _386
REMARK  163  A    between atoms: _385  and  _388
REMARK  164  A    between atoms: _388  and  _389
REMARK  165  A    between atoms: _392  and  _394
REMARK  166  A    between atoms: _394  and  _395
REMARK  167  A    between atoms: _394  and  _397
REMARK  168  A    between atoms: _397  and  _398
REMARK  169  A    between atoms: _401  and  _403
REMARK  170  A    between atoms: _403  and  _404
REMARK  171  A    between atoms: _403  and  _406
REMARK  172  A    between atoms: _406  and  _407
REMARK  173  A    between atoms: _407  and  _408
REMARK  174  A    between atoms: _410  and  _412
REMARK  175  A    between atoms: _412  and  _413
REMARK  176  A    between atoms: _412  and  _415
REMARK  177  A    between atoms: _415  and  _416
REMARK  178  A    between atoms: _416  and  _417
REMARK  179  A    between atoms: _420  and  _422
REMARK  180  A    between atoms: _422  and  _423
REMARK  181  A    between atoms: _422  and  _425
REMARK  182  A    between atoms: _425  and  _426
REMARK  183  A    between atoms: _428  and  _430
REMARK  184  A    between atoms: _430  and  _431
REMARK  185  A    between atoms: _430  and  _433
REMARK  186  A    between atoms: _433  and  _434
REMARK  187  A    between atoms: _437  and  _439
REMARK  188  A    between atoms: _439  and  _440
REMARK  189  A    between atoms: _439  and  _442
REMARK  190  A    between atoms: _442  and  _443
REMARK  191  A    between atoms: _446  and  _448
REMARK  192  A    between atoms: _448  and  _449
REMARK  193  A    between atoms: _448  and  _451
REMARK  194  A    between atoms: _451  and  _452
REMARK  195  A    between atoms: _455  and  _457
REMARK  196  A    between atoms: _457  and  _458
REMARK  197  A    between atoms: _457  and  _460
REMARK  198  A    between atoms: _460  and  _461
REMARK  199  A    between atoms: _464  and  _466
REMARK  200  A    between atoms: _466  and  _467
REMARK  201  A    between atoms: _466  and  _469
REMARK  202  A    between atoms: _469  and  _470
REMARK  203  A    between atoms: _470  and  _471
REMARK  204  A    between atoms: _471  and  _472
REMARK  205  A    between atoms: _472  and  _473
REMARK  206  A    between atoms: _477  and  _479
REMARK  207  A    between atoms: _479  and  _480
REMARK  208  A    between atoms: _482  and  _484
REMARK  209  A    between atoms: _484  and  _485
REMARK  210  A    between atoms: _484  and  _487
REMARK  211  A    between atoms: _487  and  _488
REMARK  212  A    between atoms: _493  and  _494
REMARK  213  A    between atoms: _496  and  _498
REMARK  214  A    between atoms: _498  and  _499
REMARK  215  A    between atoms: _501  and  _503
REMARK  216  A    between atoms: _503  and  _504
REMARK  217  A    between atoms: _503  and  _506
REMARK  218  A    between atoms: _506  and  _507
REMARK                            x       y       z     vdW  Elec       q    Type
REMARK                         _______ _______ _______ _____ _____    ______ ____
ROOT
ATOM      1  O   HOH     1      -4.281  29.924  11.402  0.00  0.00    +0.000 OA
ENDROOT
TORSDOF 0
REMARK  Name = ../refined-set-2016/4nwc/4nwc_pocket.pdb
REMARK  218 active torsions:
REMARK  status: ('A' for Active; 'I' for Inactive)
REMARK    1  A    between atoms: _1  and  _3
REMARK    2  A    between atoms: _3  and  _4
REMARK    3  A    between atoms: _3  and  _6
REMARK    4  A    between atoms: _6  and  _7
REMARK    5  A    between atoms: _10  and  _12
REMARK    6  A    between atoms: _12  and  _13
REMARK    7  A    between atoms: _12  and  _15
REMARK    8  A    between atoms: _15  and  _16
REMARK    9  A    between atoms: _19  and  _21
REMARK   10  A    between atoms: _21  and  _22
REMARK   11  A    between atoms: _21  and  _24
REMARK   12  A    between atoms: _24  and  _25
REMARK   13  A    between atoms: _25  and  _26
REMARK   14  A    between atoms: _29  and  _31
REMARK   15  A    between atoms: _31  and  _32
REMARK   16  A    between atoms: _31  and  _34
REMARK   17  A    between atoms: _34  and  _35
REMARK   18  A    between atoms: _35  and  _36
REMARK   19  A    between atoms: _40  and  _41
REMARK   20  A    between atoms: _46  and  _48
REMARK   21  A    between atoms: _48  and  _49
REMARK   22  A    between atoms: _48  and  _51
REMARK   23  A    between atoms: _51  and  _52
REMARK   24  A    between atoms: _58  and  _60
REMARK   25  A    between atoms: _60  and  _61
REMARK   26  A    between atoms: _60  and  _63
REMARK   27  A    between atoms: _63  and  _64
REMARK   28  A    between atoms: _64  and  _65
REMARK   29  A    between atoms: _65  and  _66
REMARK   30  A    between atoms: _66  and  _67
REMARK   31  A    between atoms: _71  and  _73
REMARK   32  A    between atoms: _73  and  _74
REMARK   33  A    between atoms: _73  and  _76
REMARK   34  A    between atoms: _76  and  _77
REMARK   35  A    between atoms: _82  and  _83
REMARK   36  A    between atoms: _85  and  _87
REMARK   37  A    between atoms: _87  and  _88
REMARK   38  A    between atoms: _90  and  _92
REMARK   39  A    between atoms: _92  and  _93
REMARK   40  A    between atoms: _96  and  _98
REMARK   41  A    between atoms: _98  and  _99
REMARK   42  A    between atoms: _98  and  _101
REMARK   43  A    between atoms: _101  and  _102
REMARK   44  A    between atoms: _102  and  _103
REMARK   45  A    between atoms: _105  and  _107
REMARK   46  A    between atoms: _107  and  _108
REMARK   47  A    between atoms: _107  and  _110
REMARK   48  A    between atoms: _113  and  _115
REMARK   49  A    between atoms: _115  and  _116
REMARK   50  A    between atoms: _120  and  _121
REMARK   51  A    between atoms: _126  and  _128
REMARK   52  A    between atoms: _128  and  _129
REMARK   53  A    between atoms: _128  and  _131
REMARK   54  A    between atoms: _131  and  _132
REMARK   55  A    between atoms: _135  and  _137
REMARK   56  A    between atoms: _137  and  _138
REMARK   57  A    between atoms: _137  and  _140
REMARK   58  A    between atoms: _140  and  _141
REMARK   59  A    between atoms: _144  and  _146
REMARK   60  A    between atoms: _146  and  _147
REMARK   61  A    between atoms: _146  and  _149
REMARK   62  A    between atoms: _149  and  _150
REMARK   63  A    between atoms: _153  and  _155
REMARK   64  A    between atoms: _155  and  _156
REMARK   65  A    between atoms: _155  and  _158
REMARK   66  A    between atoms: _158  and  _159
REMARK   67  A    between atoms: _162  and  _164
REMARK   68  A    between atoms: _164  and  _165
REMARK   69  A    between atoms: _164  and  _167
REMARK   70  A    between atoms: _167  and  _168
REMARK   71  A    between atoms: _168  and  _169
REMARK   72  A    between atoms: _169  and  _170
REMARK   73  A    between atoms: _179  and  _181
REMARK   74  A    between atoms: _181  and  _182
REMARK   75  A    between atoms: _181  and  _184
REMARK   76  A    between atoms: _184  and  _185
REMARK   77  A    between atoms: _191  and  _193
REMARK   78  A    between atoms: _193  and  _194
REMARK   79  A    between atoms: _193  and  _196
REMARK   80  A    between atoms: _196  and  _197
REMARK   81  A    between atoms: _197  and  _198
REMARK   82  A    between atoms: _200  and  _202
REMARK   83  A    between atoms: _202  and  _203
REMARK   84  A    between atoms: _202  and  _205
REMARK   85  A    between atoms: _205  and  _206
REMARK   86  A    between atoms: _209  and  _211
REMARK   87  A    between atoms: _211  and  _212
REMARK   88  A    between atoms: _214  and  _216
REMARK   89  A    between atoms: _216  and  _217
REMARK   90  A    between atoms: _216  and  _219
REMARK   91  A    between atoms: _222  and  _224
REMARK   92  A    between atoms: _224  and  _225
REMARK   93  A    between atoms: _224  and  _227
REMARK   94  A    between atoms: _227  and  _228
REMARK   95  A    between atoms: _230  and  _232
REMARK   96  A    between atoms: _232  and  _233
REMARK   97  A    between atoms: _235  and  _237
REMARK   98  A    between atoms: _237  and  _238
REMARK   99  A    between atoms: _241  and  _243
REMARK  100  A    between atoms: _243  and  _244
REMARK  101  A    between atoms: _243  and  _246
REMARK  102  A    between atoms: _249  and  _251
REMARK  103  A    between atoms: _251  and  _252
REMARK  104  A    between atoms: _251  and  _254
REMARK  105  A    between atoms: _254  and  _255
REMARK  106  A    between atoms: _255  and  _256
REMARK  107  A    between atoms: _256  and  _257
REMARK  108  A    between atoms: _257  and  _258
REMARK  109  A    between atoms: _262  and  _264
REMARK  110  A    between atoms: _264  and  _265
REMARK  111  A    between atoms: _264  and  _267
REMARK  112  A    between atoms: _267  and  _268
REMARK  113  A    between atoms: _271  and  _273
REMARK  114  A    between atoms: _273  and  _274
REMARK  115  A    between atoms: _276  and  _278
REMARK  116  A    between atoms: _278  and  _279
REMARK  117  A    between atoms: _282  and  _284
REMARK  118  A    between atoms: _284  and  _285
REMARK  119  A    between atoms: _284  and  _287
REMARK  120  A    between atoms: _287  and  _288
REMARK  121  A    between atoms: _291  and  _293
REMARK  122  A    between atoms: _293  and  _294
REMARK  123  A    between atoms: _293  and  _296
REMARK  124  A    between atoms: _296  and  _297
REMARK  125  A    between atoms: _297  and  _298
REMARK  126  A    between atoms: _300  and  _302
REMARK  127  A    between atoms: _302  and  _303
REMARK  128  A    between atoms: _302  and  _305
REMARK  129  A    between atoms: _305  and  _306
REMARK  130  A    between atoms: _309  and  _311
REMARK  131  A    between atoms: _311  and  _312
REMARK  132  A    between atoms: _311  and  _314
REMARK  133  A    between atoms: _314  and  _315
REMARK  134  A    between atoms: _321  and  _323
REMARK  135  A    between atoms: _323  and  _324
REMARK  136  A    between atoms: _323  and  _326
REMARK  137  A    between atoms: _329  and  _331
REMARK  138  A    between atoms: _331  and  _332
REMARK  139  A    between atoms: _331  and  _334
REMARK  140  A    between atoms: _334  and  _335
REMARK  141  A    between atoms: _335  and  _336
REMARK  142  A    between atoms: _336  and  _337
REMARK  143  A    between atoms: _337  and  _338
REMARK  144  A    between atoms: _342  and  _344
REMARK  145  A    between atoms: _344  and  _345
REMARK  146  A    between atoms: _344  and  _347
REMARK  147  A    between atoms: _347  and  _348
REMARK  148  A    between atoms: _353  and  _355
REMARK  149  A    between atoms: _355  and  _356
REMARK  150  A    between atoms: _355  and  _358
REMARK  151  A    between atoms: _358  and  _359
REMARK  152  A    between atoms: _364  and  _366
REMARK  153  A    between atoms: _366  and  _367
REMARK  154  A    between atoms: _366  and  _369
REMARK  155  A    between atoms: _369  and  _370
REMARK  156  A    between atoms: _370  and  _371
REMARK  157  A    between atoms: _374  and  _376
REMARK  158  A    between atoms: _376  and  _377
REMARK  159  A    between atoms: _376  and  _379
REMARK  160  A    between atoms: _379  and  _380
REMARK  161  A    between atoms: _383  and  _385
REMARK  162  A    between atoms: _385  and  _386
REMARK  163  A    between atoms: _385  and  _388
REMARK  164  A    between atoms: _388  and  _389
REMARK  165  A    between atoms: _392  and  _394
REMARK  166  A    between atoms: _394  and  _395
REMARK  167  A    between atoms: _394  and  _397
REMARK  168  A    between atoms: _397  and  _398
REMARK  169  A    between atoms: _401  and  _403
REMARK  170  A    between atoms: _403  and  _404
REMARK  171  A    between atoms: _403  and  _406
REMARK  172  A    between atoms: _406  and  _407
REMARK  173  A    between atoms: _407  and  _408
REMARK  174  A    between atoms: _410  and  _412
REMARK  175  A    between atoms: _412  and  _413
REMARK  176  A    between atoms: _412  and  _415
REMARK  177  A    between atoms: _415  and  _416
REMARK  178  A    between atoms: _416  and  _417
REMARK  179  A    between atoms: _420  and  _422
REMARK  180  A    between atoms: _422  and  _423
REMARK  181  A    between atoms: _422  and  _425
REMARK  182  A    between atoms: _425  and  _426
REMARK  183  A    between atoms: _428  and  _430
REMARK  184  A    between atoms: _430  and  _431
REMARK  185  A    between atoms: _430  and  _433
REMARK  186  A    between atoms: _433  and  _434
REMARK  187  A    between atoms: _437  and  _439
REMARK  188  A    between atoms: _439  and  _440
REMARK  189  A    between atoms: _439  and  _442
REMARK  190  A    between atoms: _442  and  _443
REMARK  191  A    between atoms: _446  and  _448
REMARK  192  A    between atoms: _448  and  _449
REMARK  193  A    between atoms: _448  and  _451
REMARK  194  A    between atoms: _451  and  _452
REMARK  195  A    between atoms: _455  and  _457
REMARK  196  A    between atoms: _457  and  _458
REMARK  197  A    between atoms: _457  and  _460
REMARK  198  A    between atoms: _460  and  _461
REMARK  199  A    between atoms: _464  and  _466
REMARK  200  A    between atoms: _466  and  _467
REMARK  201  A    between atoms: _466  and  _469
REMARK  202  A    between atoms: _469  and  _470
REMARK  203  A    between atoms: _470  and  _471
REMARK  204  A    between atoms: _471  and  _472
REMARK  205  A    between atoms: _472  and  _473
REMARK  206  A    between atoms: _477  and  _479
REMARK  207  A    between atoms: _479  and  _480
REMARK  208  A    between atoms: _482  and  _484
REMARK  209  A    between atoms: _484  and  _485
REMARK  210  A    between atoms: _484  and  _487
REMARK  211  A    between atoms: _487  and  _488
REMARK  212  A    between atoms: _493  and  _494
REMARK  213  A    between atoms: _496  and  _498
REMARK  214  A    between atoms: _498  and  _499
REMARK  215  A    between atoms: _501  and  _503
REMARK  216  A    between atoms: _503  and  _504
REMARK  217  A    between atoms: _503  and  _506
REMARK  218  A    between atoms: _506  and  _507
REMARK                            x       y       z     vdW  Elec       q    Type
REMARK                         _______ _______ _______ _____ _____    ______ ____
ROOT
ATOM      1  O   HOH     1       3.267  31.913  23.928  0.00  0.00    +0.000 OA
ENDROOT
TORSDOF 0
REMARK  Name = ../refined-set-2016/4nwc/4nwc_pocket.pdb
REMARK  218 active torsions:
REMARK  status: ('A' for Active; 'I' for Inactive)
REMARK    1  A    between atoms: _1  and  _3
REMARK    2  A    between atoms: _3  and  _4
REMARK    3  A    between atoms: _3  and  _6
REMARK    4  A    between atoms: _6  and  _7
REMARK    5  A    between atoms: _10  and  _12
REMARK    6  A    between atoms: _12  and  _13
REMARK    7  A    between atoms: _12  and  _15
REMARK    8  A    between atoms: _15  and  _16
REMARK    9  A    between atoms: _19  and  _21
REMARK   10  A    between atoms: _21  and  _22
REMARK   11  A    between atoms: _21  and  _24
REMARK   12  A    between atoms: _24  and  _25
REMARK   13  A    between atoms: _25  and  _26
REMARK   14  A    between atoms: _29  and  _31
REMARK   15  A    between atoms: _31  and  _32
REMARK   16  A    between atoms: _31  and  _34
REMARK   17  A    between atoms: _34  and  _35
REMARK   18  A    between atoms: _35  and  _36
REMARK   19  A    between atoms: _40  and  _41
REMARK   20  A    between atoms: _46  and  _48
REMARK   21  A    between atoms: _48  and  _49
REMARK   22  A    between atoms: _48  and  _51
REMARK   23  A    between atoms: _51  and  _52
REMARK   24  A    between atoms: _58  and  _60
REMARK   25  A    between atoms: _60  and  _61
REMARK   26  A    between atoms: _60  and  _63
REMARK   27  A    between atoms: _63  and  _64
REMARK   28  A    between atoms: _64  and  _65
REMARK   29  A    between atoms: _65  and  _66
REMARK   30  A    between atoms: _66  and  _67
REMARK   31  A    between atoms: _71  and  _73
REMARK   32  A    between atoms: _73  and  _74
REMARK   33  A    between atoms: _73  and  _76
REMARK   34  A    between atoms: _76  and  _77
REMARK   35  A    between atoms: _82  and  _83
REMARK   36  A    between atoms: _85  and  _87
REMARK   37  A    between atoms: _87  and  _88
REMARK   38  A    between atoms: _90  and  _92
REMARK   39  A    between atoms: _92  and  _93
REMARK   40  A    between atoms: _96  and  _98
REMARK   41  A    between atoms: _98  and  _99
REMARK   42  A    between atoms: _98  and  _101
REMARK   43  A    between atoms: _101  and  _102
REMARK   44  A    between atoms: _102  and  _103
REMARK   45  A    between atoms: _105  and  _107
REMARK   46  A    between atoms: _107  and  _108
REMARK   47  A    between atoms: _107  and  _110
REMARK   48  A    between atoms: _113  and  _115
REMARK   49  A    between atoms: _115  and  _116
REMARK   50  A    between atoms: _120  and  _121
REMARK   51  A    between atoms: _126  and  _128
REMARK   52  A    between atoms: _128  and  _129
REMARK   53  A    between atoms: _128  and  _131
REMARK   54  A    between atoms: _131  and  _132
REMARK   55  A    between atoms: _135  and  _137
REMARK   56  A    between atoms: _137  and  _138
REMARK   57  A    between atoms: _137  and  _140
REMARK   58  A    between atoms: _140  and  _141
REMARK   59  A    between atoms: _144  and  _146
REMARK   60  A    between atoms: _146  and  _147
REMARK   61  A    between atoms: _146  and  _149
REMARK   62  A    between atoms: _149  and  _150
REMARK   63  A    between atoms: _153  and  _155
REMARK   64  A    between atoms: _155  and  _156
REMARK   65  A    between atoms: _155  and  _158
REMARK   66  A    between atoms: _158  and  _159
REMARK   67  A    between atoms: _162  and  _164
REMARK   68  A    between atoms: _164  and  _165
REMARK   69  A    between atoms: _164  and  _167
REMARK   70  A    between atoms: _167  and  _168
REMARK   71  A    between atoms: _168  and  _169
REMARK   72  A    between atoms: _169  and  _170
REMARK   73  A    between atoms: _179  and  _181
REMARK   74  A    between atoms: _181  and  _182
REMARK   75  A    between atoms: _181  and  _184
REMARK   76  A    between atoms: _184  and  _185
REMARK   77  A    between atoms: _191  and  _193
REMARK   78  A    between atoms: _193  and  _194
REMARK   79  A    between atoms: _193  and  _196
REMARK   80  A    between atoms: _196  and  _197
REMARK   81  A    between atoms: _197  and  _198
REMARK   82  A    between atoms: _200  and  _202
REMARK   83  A    between atoms: _202  and  _203
REMARK   84  A    between atoms: _202  and  _205
REMARK   85  A    between atoms: _205  and  _206
REMARK   86  A    between atoms: _209  and  _211
REMARK   87  A    between atoms: _211  and  _212
REMARK   88  A    between atoms: _214  and  _216
REMARK   89  A    between atoms: _216  and  _217
REMARK   90  A    between atoms: _216  and  _219
REMARK   91  A    between atoms: _222  and  _224
REMARK   92  A    between atoms: _224  and  _225
REMARK   93  A    between atoms: _224  and  _227
REMARK   94  A    between atoms: _227  and  _228
REMARK   95  A    between atoms: _230  and  _232
REMARK   96  A    between atoms: _232  and  _233
REMARK   97  A    between atoms: _235  and  _237
REMARK   98  A    between atoms: _237  and  _238
REMARK   99  A    between atoms: _241  and  _243
REMARK  100  A    between atoms: _243  and  _244
REMARK  101  A    between atoms: _243  and  _246
REMARK  102  A    between atoms: _249  and  _251
REMARK  103  A    between atoms: _251  and  _252
REMARK  104  A    between atoms: _251  and  _254
REMARK  105  A    between atoms: _254  and  _255
REMARK  106  A    between atoms: _255  and  _256
REMARK  107  A    between atoms: _256  and  _257
REMARK  108  A    between atoms: _257  and  _258
REMARK  109  A    between atoms: _262  and  _264
REMARK  110  A    between atoms: _264  and  _265
REMARK  111  A    between atoms: _264  and  _267
REMARK  112  A    between atoms: _267  and  _268
REMARK  113  A    between atoms: _271  and  _273
REMARK  114  A    between atoms: _273  and  _274
REMARK  115  A    between atoms: _276  and  _278
REMARK  116  A    between atoms: _278  and  _279
REMARK  117  A    between atoms: _282  and  _284
REMARK  118  A    between atoms: _284  and  _285
REMARK  119  A    between atoms: _284  and  _287
REMARK  120  A    between atoms: _287  and  _288
REMARK  121  A    between atoms: _291  and  _293
REMARK  122  A    between atoms: _293  and  _294
REMARK  123  A    between atoms: _293  and  _296
REMARK  124  A    between atoms: _296  and  _297
REMARK  125  A    between atoms: _297  and  _298
REMARK  126  A    between atoms: _300  and  _302
REMARK  127  A    between atoms: _302  and  _303
REMARK  128  A    between atoms: _302  and  _305
REMARK  129  A    between atoms: _305  and  _306
REMARK  130  A    between atoms: _309  and  _311
REMARK  131  A    between atoms: _311  and  _312
REMARK  132  A    between atoms: _311  and  _314
REMARK  133  A    between atoms: _314  and  _315
REMARK  134  A    between atoms: _321  and  _323
REMARK  135  A    between atoms: _323  and  _324
REMARK  136  A    between atoms: _323  and  _326
REMARK  137  A    between atoms: _329  and  _331
REMARK  138  A    between atoms: _331  and  _332
REMARK  139  A    between atoms: _331  and  _334
REMARK  140  A    between atoms: _334  and  _335
REMARK  141  A    between atoms: _335  and  _336
REMARK  142  A    between atoms: _336  and  _337
REMARK  143  A    between atoms: _337  and  _338
REMARK  144  A    between atoms: _342  and  _344
REMARK  145  A    between atoms: _344  and  _345
REMARK  146  A    between atoms: _344  and  _347
REMARK  147  A    between atoms: _347  and  _348
REMARK  148  A    between atoms: _353  and  _355
REMARK  149  A    between atoms: _355  and  _356
REMARK  150  A    between atoms: _355  and  _358
REMARK  151  A    between atoms: _358  and  _359
REMARK  152  A    between atoms: _364  and  _366
REMARK  153  A    between atoms: _366  and  _367
REMARK  154  A    between atoms: _366  and  _369
REMARK  155  A    between atoms: _369  and  _370
REMARK  156  A    between atoms: _370  and  _371
REMARK  157  A    between atoms: _374  and  _376
REMARK  158  A    between atoms: _376  and  _377
REMARK  159  A    between atoms: _376  and  _379
REMARK  160  A    between atoms: _379  and  _380
REMARK  161  A    between atoms: _383  and  _385
REMARK  162  A    between atoms: _385  and  _386
REMARK  163  A    between atoms: _385  and  _388
REMARK  164  A    between atoms: _388  and  _389
REMARK  165  A    between atoms: _392  and  _394
REMARK  166  A    between atoms: _394  and  _395
REMARK  167  A    between atoms: _394  and  _397
REMARK  168  A    between atoms: _397  and  _398
REMARK  169  A    between atoms: _401  and  _403
REMARK  170  A    between atoms: _403  and  _404
REMARK  171  A    between atoms: _403  and  _406
REMARK  172  A    between atoms: _406  and  _407
REMARK  173  A    between atoms: _407  and  _408
REMARK  174  A    between atoms: _410  and  _412
REMARK  175  A    between atoms: _412  and  _413
REMARK  176  A    between atoms: _412  and  _415
REMARK  177  A    between atoms: _415  and  _416
REMARK  178  A    between atoms: _416  and  _417
REMARK  179  A    between atoms: _420  and  _422
REMARK  180  A    between atoms: _422  and  _423
REMARK  181  A    between atoms: _422  and  _425
REMARK  182  A    between atoms: _425  and  _426
REMARK  183  A    between atoms: _428  and  _430
REMARK  184  A    between atoms: _430  and  _431
REMARK  185  A    between atoms: _430  and  _433
REMARK  186  A    between atoms: _433  and  _434
REMARK  187  A    between atoms: _437  and  _439
REMARK  188  A    between atoms: _439  and  _440
REMARK  189  A    between atoms: _439  and  _442
REMARK  190  A    between atoms: _442  and  _443
REMARK  191  A    between atoms: _446  and  _448
REMARK  192  A    between atoms: _448  and  _449
REMARK  193  A    between atoms: _448  and  _451
REMARK  194  A    between atoms: _451  and  _452
REMARK  195  A    between atoms: _455  and  _457
REMARK  196  A    between atoms: _457  and  _458
REMARK  197  A    between atoms: _457  and  _460
REMARK  198  A    between atoms: _460  and  _461
REMARK  199  A    between atoms: _464  and  _466
REMARK  200  A    between atoms: _466  and  _467
REMARK  201  A    between atoms: _466  and  _469
REMARK  202  A    between atoms: _469  and  _470
REMARK  203  A    between atoms: _470  and  _471
REMARK  204  A    between atoms: _471  and  _472
REMARK  205  A    between atoms: _472  and  _473
REMARK  206  A    between atoms: _477  and  _479
REMARK  207  A    between atoms: _479  and  _480
REMARK  208  A    between atoms: _482  and  _484
REMARK  209  A    between atoms: _484  and  _485
REMARK  210  A    between atoms: _484  and  _487
REMARK  211  A    between atoms: _487  and  _488
REMARK  212  A    between atoms: _493  and  _494
REMARK  213  A    between atoms: _496  and  _498
REMARK  214  A    between atoms: _498  and  _499
REMARK  215  A    between atoms: _501  and  _503
REMARK  216  A    between atoms: _503  and  _504
REMARK  217  A    between atoms: _503  and  _506
REMARK  218  A    between atoms: _506  and  _507
REMARK                            x       y       z     vdW  Elec       q    Type
REMARK                         _______ _______ _______ _____ _____    ______ ____
ROOT
ATOM      1  O   HOH     1       5.745  30.587  23.105  0.00  0.00    +0.000 OA
ENDROOT
TORSDOF 0
REMARK  Name = ../refined-set-2016/4nwc/4nwc_pocket.pdb
REMARK  218 active torsions:
REMARK  status: ('A' for Active; 'I' for Inactive)
REMARK    1  A    between atoms: _1  and  _3
REMARK    2  A    between atoms: _3  and  _4
REMARK    3  A    between atoms: _3  and  _6
REMARK    4  A    between atoms: _6  and  _7
REMARK    5  A    between atoms: _10  and  _12
REMARK    6  A    between atoms: _12  and  _13
REMARK    7  A    between atoms: _12  and  _15
REMARK    8  A    between atoms: _15  and  _16
REMARK    9  A    between atoms: _19  and  _21
REMARK   10  A    between atoms: _21  and  _22
REMARK   11  A    between atoms: _21  and  _24
REMARK   12  A    between atoms: _24  and  _25
REMARK   13  A    between atoms: _25  and  _26
REMARK   14  A    between atoms: _29  and  _31
REMARK   15  A    between atoms: _31  and  _32
REMARK   16  A    between atoms: _31  and  _34
REMARK   17  A    between atoms: _34  and  _35
REMARK   18  A    between atoms: _35  and  _36
REMARK   19  A    between atoms: _40  and  _41
REMARK   20  A    between atoms: _46  and  _48
REMARK   21  A    between atoms: _48  and  _49
REMARK   22  A    between atoms: _48  and  _51
REMARK   23  A    between atoms: _51  and  _52
REMARK   24  A    between atoms: _58  and  _60
REMARK   25  A    between atoms: _60  and  _61
REMARK   26  A    between atoms: _60  and  _63
REMARK   27  A    between atoms: _63  and  _64
REMARK   28  A    between atoms: _64  and  _65
REMARK   29  A    between atoms: _65  and  _66
REMARK   30  A    between atoms: _66  and  _67
REMARK   31  A    between atoms: _71  and  _73
REMARK   32  A    between atoms: _73  and  _74
REMARK   33  A    between atoms: _73  and  _76
REMARK   34  A    between atoms: _76  and  _77
REMARK   35  A    between atoms: _82  and  _83
REMARK   36  A    between atoms: _85  and  _87
REMARK   37  A    between atoms: _87  and  _88
REMARK   38  A    between atoms: _90  and  _92
REMARK   39  A    between atoms: _92  and  _93
REMARK   40  A    between atoms: _96  and  _98
REMARK   41  A    between atoms: _98  and  _99
REMARK   42  A    between atoms: _98  and  _101
REMARK   43  A    between atoms: _101  and  _102
REMARK   44  A    between atoms: _102  and  _103
REMARK   45  A    between atoms: _105  and  _107
REMARK   46  A    between atoms: _107  and  _108
REMARK   47  A    between atoms: _107  and  _110
REMARK   48  A    between atoms: _113  and  _115
REMARK   49  A    between atoms: _115  and  _116
REMARK   50  A    between atoms: _120  and  _121
REMARK   51  A    between atoms: _126  and  _128
REMARK   52  A    between atoms: _128  and  _129
REMARK   53  A    between atoms: _128  and  _131
REMARK   54  A    between atoms: _131  and  _132
REMARK   55  A    between atoms: _135  and  _137
REMARK   56  A    between atoms: _137  and  _138
REMARK   57  A    between atoms: _137  and  _140
REMARK   58  A    between atoms: _140  and  _141
REMARK   59  A    between atoms: _144  and  _146
REMARK   60  A    between atoms: _146  and  _147
REMARK   61  A    between atoms: _146  and  _149
REMARK   62  A    between atoms: _149  and  _150
REMARK   63  A    between atoms: _153  and  _155
REMARK   64  A    between atoms: _155  and  _156
REMARK   65  A    between atoms: _155  and  _158
REMARK   66  A    between atoms: _158  and  _159
REMARK   67  A    between atoms: _162  and  _164
REMARK   68  A    between atoms: _164  and  _165
REMARK   69  A    between atoms: _164  and  _167
REMARK   70  A    between atoms: _167  and  _168
REMARK   71  A    between atoms: _168  and  _169
REMARK   72  A    between atoms: _169  and  _170
REMARK   73  A    between atoms: _179  and  _181
REMARK   74  A    between atoms: _181  and  _182
REMARK   75  A    between atoms: _181  and  _184
REMARK   76  A    between atoms: _184  and  _185
REMARK   77  A    between atoms: _191  and  _193
REMARK   78  A    between atoms: _193  and  _194
REMARK   79  A    between atoms: _193  and  _196
REMARK   80  A    between atoms: _196  and  _197
REMARK   81  A    between atoms: _197  and  _198
REMARK   82  A    between atoms: _200  and  _202
REMARK   83  A    between atoms: _202  and  _203
REMARK   84  A    between atoms: _202  and  _205
REMARK   85  A    between atoms: _205  and  _206
REMARK   86  A    between atoms: _209  and  _211
REMARK   87  A    between atoms: _211  and  _212
REMARK   88  A    between atoms: _214  and  _216
REMARK   89  A    between atoms: _216  and  _217
REMARK   90  A    between atoms: _216  and  _219
REMARK   91  A    between atoms: _222  and  _224
REMARK   92  A    between atoms: _224  and  _225
REMARK   93  A    between atoms: _224  and  _227
REMARK   94  A    between atoms: _227  and  _228
REMARK   95  A    between atoms: _230  and  _232
REMARK   96  A    between atoms: _232  and  _233
REMARK   97  A    between atoms: _235  and  _237
REMARK   98  A    between atoms: _237  and  _238
REMARK   99  A    between atoms: _241  and  _243
REMARK  100  A    between atoms: _243  and  _244
REMARK  101  A    between atoms: _243  and  _246
REMARK  102  A    between atoms: _249  and  _251
REMARK  103  A    between atoms: _251  and  _252
REMARK  104  A    between atoms: _251  and  _254
REMARK  105  A    between atoms: _254  and  _255
REMARK  106  A    between atoms: _255  and  _256
REMARK  107  A    between atoms: _256  and  _257
REMARK  108  A    between atoms: _257  and  _258
REMARK  109  A    between atoms: _262  and  _264
REMARK  110  A    between atoms: _264  and  _265
REMARK  111  A    between atoms: _264  and  _267
REMARK  112  A    between atoms: _267  and  _268
REMARK  113  A    between atoms: _271  and  _273
REMARK  114  A    between atoms: _273  and  _274
REMARK  115  A    between atoms: _276  and  _278
REMARK  116  A    between atoms: _278  and  _279
REMARK  117  A    between atoms: _282  and  _284
REMARK  118  A    between atoms: _284  and  _285
REMARK  119  A    between atoms: _284  and  _287
REMARK  120  A    between atoms: _287  and  _288
REMARK  121  A    between atoms: _291  and  _293
REMARK  122  A    between atoms: _293  and  _294
REMARK  123  A    between atoms: _293  and  _296
REMARK  124  A    between atoms: _296  and  _297
REMARK  125  A    between atoms: _297  and  _298
REMARK  126  A    between atoms: _300  and  _302
REMARK  127  A    between atoms: _302  and  _303
REMARK  128  A    between atoms: _302  and  _305
REMARK  129  A    between atoms: _305  and  _306
REMARK  130  A    between atoms: _309  and  _311
REMARK  131  A    between atoms: _311  and  _312
REMARK  132  A    between atoms: _311  and  _314
REMARK  133  A    between atoms: _314  and  _315
REMARK  134  A    between atoms: _321  and  _323
REMARK  135  A    between atoms: _323  and  _324
REMARK  136  A    between atoms: _323  and  _326
REMARK  137  A    between atoms: _329  and  _331
REMARK  138  A    between atoms: _331  and  _332
REMARK  139  A    between atoms: _331  and  _334
REMARK  140  A    between atoms: _334  and  _335
REMARK  141  A    between atoms: _335  and  _336
REMARK  142  A    between atoms: _336  and  _337
REMARK  143  A    between atoms: _337  and  _338
REMARK  144  A    between atoms: _342  and  _344
REMARK  145  A    between atoms: _344  and  _345
REMARK  146  A    between atoms: _344  and  _347
REMARK  147  A    between atoms: _347  and  _348
REMARK  148  A    between atoms: _353  and  _355
REMARK  149  A    between atoms: _355  and  _356
REMARK  150  A    between atoms: _355  and  _358
REMARK  151  A    between atoms: _358  and  _359
REMARK  152  A    between atoms: _364  and  _366
REMARK  153  A    between atoms: _366  and  _367
REMARK  154  A    between atoms: _366  and  _369
REMARK  155  A    between atoms: _369  and  _370
REMARK  156  A    between atoms: _370  and  _371
REMARK  157  A    between atoms: _374  and  _376
REMARK  158  A    between atoms: _376  and  _377
REMARK  159  A    between atoms: _376  and  _379
REMARK  160  A    between atoms: _379  and  _380
REMARK  161  A    between atoms: _383  and  _385
REMARK  162  A    between atoms: _385  and  _386
REMARK  163  A    between atoms: _385  and  _388
REMARK  164  A    between atoms: _388  and  _389
REMARK  165  A    between atoms: _392  and  _394
REMARK  166  A    between atoms: _394  and  _395
REMARK  167  A    between atoms: _394  and  _397
REMARK  168  A    between atoms: _397  and  _398
REMARK  169  A    between atoms: _401  and  _403
REMARK  170  A    between atoms: _403  and  _404
REMARK  171  A    between atoms: _403  and  _406
REMARK  172  A    between atoms: _406  and  _407
REMARK  173  A    between atoms: _407  and  _408
REMARK  174  A    between atoms: _410  and  _412
REMARK  175  A    between atoms: _412  and  _413
REMARK  176  A    between atoms: _412  and  _415
REMARK  177  A    between atoms: _415  and  _416
REMARK  178  A    between atoms: _416  and  _417
REMARK  179  A    between atoms: _420  and  _422
REMARK  180  A    between atoms: _422  and  _423
REMARK  181  A    between atoms: _422  and  _425
REMARK  182  A    between atoms: _425  and  _426
REMARK  183  A    between atoms: _428  and  _430
REMARK  184  A    between atoms: _430  and  _431
REMARK  185  A    between atoms: _430  and  _433
REMARK  186  A    between atoms: _433  and  _434
REMARK  187  A    between atoms: _437  and  _439
REMARK  188  A    between atoms: _439  and  _440
REMARK  189  A    between atoms: _439  and  _442
REMARK  190  A    between atoms: _442  and  _443
REMARK  191  A    between atoms: _446  and  _448
REMARK  192  A    between atoms: _448  and  _449
REMARK  193  A    between atoms: _448  and  _451
REMARK  194  A    between atoms: _451  and  _452
REMARK  195  A    between atoms: _455  and  _457
REMARK  196  A    between atoms: _457  and  _458
REMARK  197  A    between atoms: _457  and  _460
REMARK  198  A    between atoms: _460  and  _461
REMARK  199  A    between atoms: _464  and  _466
REMARK  200  A    between atoms: _466  and  _467
REMARK  201  A    between atoms: _466  and  _469
REMARK  202  A    between atoms: _469  and  _470
REMARK  203  A    between atoms: _470  and  _471
REMARK  204  A    between atoms: _471  and  _472
REMARK  205  A    between atoms: _472  and  _473
REMARK  206  A    between atoms: _477  and  _479
REMARK  207  A    between atoms: _479  and  _480
REMARK  208  A    between atoms: _482  and  _484
REMARK  209  A    between atoms: _484  and  _485
REMARK  210  A    between atoms: _484  and  _487
REMARK  211  A    between atoms: _487  and  _488
REMARK  212  A    between atoms: _493  and  _494
REMARK  213  A    between atoms: _496  and  _498
REMARK  214  A    between atoms: _498  and  _499
REMARK  215  A    between atoms: _501  and  _503
REMARK  216  A    between atoms: _503  and  _504
REMARK  217  A    between atoms: _503  and  _506
REMARK  218  A    between atoms: _506  and  _507
REMARK                            x       y       z     vdW  Elec       q    Type
REMARK                         _______ _______ _______ _____ _____    ______ ____
ROOT
ATOM      1  O   HOH     1      10.734  26.982  20.526  0.00  0.00    +0.000 OA
ENDROOT
TORSDOF 0
