REMARK  Name = ../refined-set-2016/2z4o/2z4o_pocket.pdb
REMARK  233 active torsions:
REMARK  status: ('A' for Active; 'I' for Inactive)
REMARK    1  A    between atoms: _1  and  _3
REMARK    2  A    between atoms: _3  and  _4
REMARK    3  A    between atoms: _3  and  _6
REMARK    4  A    between atoms: _6  and  _7
REMARK    5  A    between atoms: _7  and  _8
REMARK    6  A    between atoms: _8  and  _9
REMARK    7  A    between atoms: _11  and  _15
REMARK    8  A    between atoms: _18  and  _20
REMARK    9  A    between atoms: _20  and  _21
REMARK   10  A    between atoms: _20  and  _23
REMARK   11  A    between atoms: _23  and  _24
REMARK   12  A    between atoms: _27  and  _29
REMARK   13  A    between atoms: _29  and  _30
REMARK   14  A    between atoms: _29  and  _32
REMARK   15  A    between atoms: _32  and  _33
REMARK   16  A    between atoms: _36  and  _38
REMARK   17  A    between atoms: _38  and  _39
REMARK   18  A    between atoms: _38  and  _41
REMARK   19  A    between atoms: _41  and  _42
REMARK   20  A    between atoms: _45  and  _47
REMARK   21  A    between atoms: _47  and  _48
REMARK   22  A    between atoms: _47  and  _50
REMARK   23  A    between atoms: _50  and  _51
REMARK   24  A    between atoms: _54  and  _56
REMARK   25  A    between atoms: _56  and  _57
REMARK   26  A    between atoms: _59  and  _61
REMARK   27  A    between atoms: _61  and  _62
REMARK   28  A    between atoms: _65  and  _67
REMARK   29  A    between atoms: _67  and  _68
REMARK   30  A    between atoms: _67  and  _70
REMARK   31  A    between atoms: _70  and  _71
REMARK   32  A    between atoms: _74  and  _76
REMARK   33  A    between atoms: _76  and  _77
REMARK   34  A    between atoms: _76  and  _79
REMARK   35  A    between atoms: _79  and  _80
REMARK   36  A    between atoms: _83  and  _85
REMARK   37  A    between atoms: _85  and  _86
REMARK   38  A    between atoms: _85  and  _88
REMARK   39  A    between atoms: _88  and  _89
REMARK   40  A    between atoms: _92  and  _94
REMARK   41  A    between atoms: _94  and  _95
REMARK   42  A    between atoms: _94  and  _97
REMARK   43  A    between atoms: _100  and  _102
REMARK   44  A    between atoms: _102  and  _103
REMARK   45  A    between atoms: _102  and  _105
REMARK   46  A    between atoms: _105  and  _106
REMARK   47  A    between atoms: _106  and  _107
REMARK   48  A    between atoms: _107  and  _108
REMARK   49  A    between atoms: _108  and  _109
REMARK   50  A    between atoms: _113  and  _115
REMARK   51  A    between atoms: _115  and  _116
REMARK   52  A    between atoms: _115  and  _118
REMARK   53  A    between atoms: _118  and  _119
REMARK   54  A    between atoms: _119  and  _120
REMARK   55  A    between atoms: _122  and  _124
REMARK   56  A    between atoms: _124  and  _125
REMARK   57  A    between atoms: _124  and  _127
REMARK   58  A    between atoms: _127  and  _128
REMARK   59  A    between atoms: _131  and  _133
REMARK   60  A    between atoms: _133  and  _134
REMARK   61  A    between atoms: _136  and  _138
REMARK   62  A    between atoms: _138  and  _139
REMARK   63  A    between atoms: _141  and  _143
REMARK   64  A    between atoms: _143  and  _144
REMARK   65  A    between atoms: _143  and  _146
REMARK   66  A    between atoms: _146  and  _147
REMARK   67  A    between atoms: _150  and  _152
REMARK   68  A    between atoms: _152  and  _153
REMARK   69  A    between atoms: _155  and  _157
REMARK   70  A    between atoms: _157  and  _158
REMARK   71  A    between atoms: _160  and  _162
REMARK   72  A    between atoms: _162  and  _163
REMARK   73  A    between atoms: _162  and  _165
REMARK   74  A    between atoms: _165  and  _166
REMARK   75  A    between atoms: _172  and  _174
REMARK   76  A    between atoms: _174  and  _175
REMARK   77  A    between atoms: _174  and  _177
REMARK   78  A    between atoms: _177  and  _178
REMARK   79  A    between atoms: _181  and  _183
REMARK   80  A    between atoms: _183  and  _184
REMARK   81  A    between atoms: _183  and  _186
REMARK   82  A    between atoms: _189  and  _191
REMARK   83  A    between atoms: _191  and  _192
REMARK   84  A    between atoms: _191  and  _194
REMARK   85  A    between atoms: _194  and  _195
REMARK   86  A    between atoms: _198  and  _200
REMARK   87  A    between atoms: _200  and  _201
REMARK   88  A    between atoms: _200  and  _203
REMARK   89  A    between atoms: _203  and  _204
REMARK   90  A    between atoms: _208  and  _209
REMARK   91  A    between atoms: _214  and  _216
REMARK   92  A    between atoms: _216  and  _217
REMARK   93  A    between atoms: _216  and  _219
REMARK   94  A    between atoms: _222  and  _224
REMARK   95  A    between atoms: _224  and  _225
REMARK   96  A    between atoms: _224  and  _227
REMARK   97  A    between atoms: _227  and  _228
REMARK   98  A    between atoms: _233  and  _235
REMARK   99  A    between atoms: _235  and  _236
REMARK  100  A    between atoms: _235  and  _238
REMARK  101  A    between atoms: _238  and  _239
REMARK  102  A    between atoms: _242  and  _244
REMARK  103  A    between atoms: _244  and  _245
REMARK  104  A    between atoms: _244  and  _247
REMARK  105  A    between atoms: _247  and  _248
REMARK  106  A    between atoms: _251  and  _253
REMARK  107  A    between atoms: _253  and  _254
REMARK  108  A    between atoms: _256  and  _258
REMARK  109  A    between atoms: _258  and  _259
REMARK  110  A    between atoms: _258  and  _261
REMARK  111  A    between atoms: _261  and  _262
REMARK  112  A    between atoms: _262  and  _263
REMARK  113  A    between atoms: _263  and  _264
REMARK  114  A    between atoms: _273  and  _275
REMARK  115  A    between atoms: _275  and  _276
REMARK  116  A    between atoms: _275  and  _278
REMARK  117  A    between atoms: _278  and  _279
REMARK  118  A    between atoms: _284  and  _286
REMARK  119  A    between atoms: _286  and  _287
REMARK  120  A    between atoms: _286  and  _289
REMARK  121  A    between atoms: _289  and  _290
REMARK  122  A    between atoms: _290  and  _291
REMARK  123  A    between atoms: _291  and  _292
REMARK  124  A    between atoms: _301  and  _303
REMARK  125  A    between atoms: _303  and  _304
REMARK  126  A    between atoms: _303  and  _306
REMARK  127  A    between atoms: _306  and  _307
REMARK  128  A    between atoms: _310  and  _312
REMARK  129  A    between atoms: _312  and  _313
REMARK  130  A    between atoms: _312  and  _315
REMARK  131  A    between atoms: _315  and  _316
REMARK  132  A    between atoms: _319  and  _321
REMARK  133  A    between atoms: _321  and  _322
REMARK  134  A    between atoms: _321  and  _324
REMARK  135  A    between atoms: _324  and  _325
REMARK  136  A    between atoms: _328  and  _330
REMARK  137  A    between atoms: _330  and  _331
REMARK  138  A    between atoms: _330  and  _333
REMARK  139  A    between atoms: _333  and  _334
REMARK  140  A    between atoms: _337  and  _339
REMARK  141  A    between atoms: _339  and  _340
REMARK  142  A    between atoms: _342  and  _344
REMARK  143  A    between atoms: _344  and  _345
REMARK  144  A    between atoms: _348  and  _350
REMARK  145  A    between atoms: _350  and  _351
REMARK  146  A    between atoms: _350  and  _353
REMARK  147  A    between atoms: _353  and  _354
REMARK  148  A    between atoms: _357  and  _359
REMARK  149  A    between atoms: _359  and  _360
REMARK  150  A    between atoms: _359  and  _362
REMARK  151  A    between atoms: _362  and  _363
REMARK  152  A    between atoms: _366  and  _368
REMARK  153  A    between atoms: _368  and  _369
REMARK  154  A    between atoms: _368  and  _371
REMARK  155  A    between atoms: _371  and  _372
REMARK  156  A    between atoms: _375  and  _377
REMARK  157  A    between atoms: _377  and  _378
REMARK  158  A    between atoms: _377  and  _380
REMARK  159  A    between atoms: _383  and  _385
REMARK  160  A    between atoms: _385  and  _386
REMARK  161  A    between atoms: _385  and  _388
REMARK  162  A    between atoms: _388  and  _389
REMARK  163  A    between atoms: _389  and  _390
REMARK  164  A    between atoms: _390  and  _391
REMARK  165  A    between atoms: _391  and  _392
REMARK  166  A    between atoms: _396  and  _398
REMARK  167  A    between atoms: _398  and  _399
REMARK  168  A    between atoms: _398  and  _401
REMARK  169  A    between atoms: _401  and  _402
REMARK  170  A    between atoms: _402  and  _403
REMARK  171  A    between atoms: _405  and  _407
REMARK  172  A    between atoms: _407  and  _408
REMARK  173  A    between atoms: _407  and  _410
REMARK  174  A    between atoms: _410  and  _411
REMARK  175  A    between atoms: _414  and  _416
REMARK  176  A    between atoms: _416  and  _417
REMARK  177  A    between atoms: _419  and  _421
REMARK  178  A    between atoms: _421  and  _422
REMARK  179  A    between atoms: _424  and  _426
REMARK  180  A    between atoms: _426  and  _427
REMARK  181  A    between atoms: _426  and  _429
REMARK  182  A    between atoms: _429  and  _430
REMARK  183  A    between atoms: _433  and  _435
REMARK  184  A    between atoms: _435  and  _436
REMARK  185  A    between atoms: _438  and  _440
REMARK  186  A    between atoms: _440  and  _441
REMARK  187  A    between atoms: _443  and  _445
REMARK  188  A    between atoms: _445  and  _446
REMARK  189  A    between atoms: _445  and  _448
REMARK  190  A    between atoms: _448  and  _449
REMARK  191  A    between atoms: _455  and  _457
REMARK  192  A    between atoms: _457  and  _458
REMARK  193  A    between atoms: _457  and  _460
REMARK  194  A    between atoms: _460  and  _461
REMARK  195  A    between atoms: _464  and  _466
REMARK  196  A    between atoms: _466  and  _467
REMARK  197  A    between atoms: _466  and  _469
REMARK  198  A    between atoms: _472  and  _474
REMARK  199  A    between atoms: _474  and  _475
REMARK  200  A    between atoms: _474  and  _477
REMARK  201  A    between atoms: _477  and  _478
REMARK  202  A    between atoms: _481  and  _483
REMARK  203  A    between atoms: _483  and  _484
REMARK  204  A    between atoms: _483  and  _486
REMARK  205  A    between atoms: _486  and  _487
REMARK  206  A    between atoms: _491  and  _492
REMARK  207  A    between atoms: _497  and  _499
REMARK  208  A    between atoms: _499  and  _500
REMARK  209  A    between atoms: _499  and  _502
REMARK  210  A    between atoms: _505  and  _507
REMARK  211  A    between atoms: _507  and  _508
REMARK  212  A    between atoms: _507  and  _510
REMARK  213  A    between atoms: _510  and  _511
REMARK  214  A    between atoms: _516  and  _518
REMARK  215  A    between atoms: _518  and  _519
REMARK  216  A    between atoms: _518  and  _521
REMARK  217  A    between atoms: _521  and  _522
REMARK  218  A    between atoms: _525  and  _527
REMARK  219  A    between atoms: _527  and  _528
REMARK  220  A    between atoms: _527  and  _530
REMARK  221  A    between atoms: _530  and  _531
REMARK  222  A    between atoms: _534  and  _536
REMARK  223  A    between atoms: _536  and  _537
REMARK  224  A    between atoms: _539  and  _541
REMARK  225  A    between atoms: _541  and  _542
REMARK  226  A    between atoms: _541  and  _544
REMARK  227  A    between atoms: _544  and  _545
REMARK  228  A    between atoms: _545  and  _546
REMARK  229  A    between atoms: _546  and  _547
REMARK  230  A    between atoms: _556  and  _558
REMARK  231  A    between atoms: _558  and  _559
REMARK  232  A    between atoms: _558  and  _561
REMARK  233  A    between atoms: _561  and  _562
REMARK                            x       y       z     vdW  Elec       q    Type
REMARK                         _______ _______ _______ _____ _____    ______ ____
ROOT
ATOM      1  N   UNK     1       6.678  20.597  15.150  0.00  0.00    -0.265 N 
ATOM      2  H   UNK     1       6.361  20.104  16.009  0.00  0.00    +0.259 HD
ATOM      3  C   UNK     1       7.676  20.088  14.439  0.00  0.00    +0.342 C 
ATOM      4  N   UNK     1       8.259  18.968  14.816  0.00  0.00    -0.292 N 
ATOM      5  H   UNK     1       7.937  18.478  15.675  0.00  0.00    +0.255 HD
ATOM      6  H   UNK     1       9.041  18.574  14.254  0.00  0.00    +0.255 HD
ENDROOT
BRANCH   3   7
ATOM      7  N   UNK     1       8.095  20.699  13.342  0.00  0.00    -0.238 NA
ATOM      8  O   UNK     1       8.969  21.446  13.883  0.00  0.00    -0.053 OA
ATOM      9  H   UNK     1       7.642  21.583  13.033  0.00  0.00    +0.254 HD
ATOM     10  H   UNK     1       8.878  20.295  12.789  0.00  0.00    +0.254 HD
ENDBRANCH   3   7
BRANCH   1  11
ATOM     11  C   UNK     1       6.016  21.837  14.749  0.00  0.00    +0.174 C 
BRANCH  11  12
ATOM     12  C   UNK     1       5.077  22.324  15.848  0.00  0.00    +0.044 C 
BRANCH  12  13
ATOM     13  C   UNK     1       4.562  23.714  15.514  0.00  0.00    +0.023 C 
BRANCH  13  14
ATOM     14  C   UNK     1       3.957  24.489  16.678  0.00  0.00    +0.102 C 
BRANCH  14  15
ATOM     15  N   UNK     1       2.752  23.828  17.162  0.00  0.00    -0.244 NA
ATOM     16  H   UNK     1       2.390  22.981  16.679  0.00  0.00    +0.141 HD
ENDBRANCH  14  15
BRANCH  14  17
ATOM     17  C   UNK     1       3.646  25.924  16.255  0.00  0.00    +0.199 C 
ATOM     18  O   UNK     1       2.632  26.042  15.542  0.00  0.00    -0.219 OA
ENDBRANCH  14  17
ENDBRANCH  13  14
ENDBRANCH  12  13
ENDBRANCH  11  12
ENDBRANCH   1  11
TORSDOF 7
REMARK  Name = ../refined-set-2016/2z4o/2z4o_pocket.pdb
REMARK  233 active torsions:
REMARK  status: ('A' for Active; 'I' for Inactive)
REMARK    1  A    between atoms: _1  and  _3
REMARK    2  A    between atoms: _3  and  _4
REMARK    3  A    between atoms: _3  and  _6
REMARK    4  A    between atoms: _6  and  _7
REMARK    5  A    between atoms: _7  and  _8
REMARK    6  A    between atoms: _8  and  _9
REMARK    7  A    between atoms: _11  and  _15
REMARK    8  A    between atoms: _18  and  _20
REMARK    9  A    between atoms: _20  and  _21
REMARK   10  A    between atoms: _20  and  _23
REMARK   11  A    between atoms: _23  and  _24
REMARK   12  A    between atoms: _27  and  _29
REMARK   13  A    between atoms: _29  and  _30
REMARK   14  A    between atoms: _29  and  _32
REMARK   15  A    between atoms: _32  and  _33
REMARK   16  A    between atoms: _36  and  _38
REMARK   17  A    between atoms: _38  and  _39
REMARK   18  A    between atoms: _38  and  _41
REMARK   19  A    between atoms: _41  and  _42
REMARK   20  A    between atoms: _45  and  _47
REMARK   21  A    between atoms: _47  and  _48
REMARK   22  A    between atoms: _47  and  _50
REMARK   23  A    between atoms: _50  and  _51
REMARK   24  A    between atoms: _54  and  _56
REMARK   25  A    between atoms: _56  and  _57
REMARK   26  A    between atoms: _59  and  _61
REMARK   27  A    between atoms: _61  and  _62
REMARK   28  A    between atoms: _65  and  _67
REMARK   29  A    between atoms: _67  and  _68
REMARK   30  A    between atoms: _67  and  _70
REMARK   31  A    between atoms: _70  and  _71
REMARK   32  A    between atoms: _74  and  _76
REMARK   33  A    between atoms: _76  and  _77
REMARK   34  A    between atoms: _76  and  _79
REMARK   35  A    between atoms: _79  and  _80
REMARK   36  A    between atoms: _83  and  _85
REMARK   37  A    between atoms: _85  and  _86
REMARK   38  A    between atoms: _85  and  _88
REMARK   39  A    between atoms: _88  and  _89
REMARK   40  A    between atoms: _92  and  _94
REMARK   41  A    between atoms: _94  and  _95
REMARK   42  A    between atoms: _94  and  _97
REMARK   43  A    between atoms: _100  and  _102
REMARK   44  A    between atoms: _102  and  _103
REMARK   45  A    between atoms: _102  and  _105
REMARK   46  A    between atoms: _105  and  _106
REMARK   47  A    between atoms: _106  and  _107
REMARK   48  A    between atoms: _107  and  _108
REMARK   49  A    between atoms: _108  and  _109
REMARK   50  A    between atoms: _113  and  _115
REMARK   51  A    between atoms: _115  and  _116
REMARK   52  A    between atoms: _115  and  _118
REMARK   53  A    between atoms: _118  and  _119
REMARK   54  A    between atoms: _119  and  _120
REMARK   55  A    between atoms: _122  and  _124
REMARK   56  A    between atoms: _124  and  _125
REMARK   57  A    between atoms: _124  and  _127
REMARK   58  A    between atoms: _127  and  _128
REMARK   59  A    between atoms: _131  and  _133
REMARK   60  A    between atoms: _133  and  _134
REMARK   61  A    between atoms: _136  and  _138
REMARK   62  A    between atoms: _138  and  _139
REMARK   63  A    between atoms: _141  and  _143
REMARK   64  A    between atoms: _143  and  _144
REMARK   65  A    between atoms: _143  and  _146
REMARK   66  A    between atoms: _146  and  _147
REMARK   67  A    between atoms: _150  and  _152
REMARK   68  A    between atoms: _152  and  _153
REMARK   69  A    between atoms: _155  and  _157
REMARK   70  A    between atoms: _157  and  _158
REMARK   71  A    between atoms: _160  and  _162
REMARK   72  A    between atoms: _162  and  _163
REMARK   73  A    between atoms: _162  and  _165
REMARK   74  A    between atoms: _165  and  _166
REMARK   75  A    between atoms: _172  and  _174
REMARK   76  A    between atoms: _174  and  _175
REMARK   77  A    between atoms: _174  and  _177
REMARK   78  A    between atoms: _177  and  _178
REMARK   79  A    between atoms: _181  and  _183
REMARK   80  A    between atoms: _183  and  _184
REMARK   81  A    between atoms: _183  and  _186
REMARK   82  A    between atoms: _189  and  _191
REMARK   83  A    between atoms: _191  and  _192
REMARK   84  A    between atoms: _191  and  _194
REMARK   85  A    between atoms: _194  and  _195
REMARK   86  A    between atoms: _198  and  _200
REMARK   87  A    between atoms: _200  and  _201
REMARK   88  A    between atoms: _200  and  _203
REMARK   89  A    between atoms: _203  and  _204
REMARK   90  A    between atoms: _208  and  _209
REMARK   91  A    between atoms: _214  and  _216
REMARK   92  A    between atoms: _216  and  _217
REMARK   93  A    between atoms: _216  and  _219
REMARK   94  A    between atoms: _222  and  _224
REMARK   95  A    between atoms: _224  and  _225
REMARK   96  A    between atoms: _224  and  _227
REMARK   97  A    between atoms: _227  and  _228
REMARK   98  A    between atoms: _233  and  _235
REMARK   99  A    between atoms: _235  and  _236
REMARK  100  A    between atoms: _235  and  _238
REMARK  101  A    between atoms: _238  and  _239
REMARK  102  A    between atoms: _242  and  _244
REMARK  103  A    between atoms: _244  and  _245
REMARK  104  A    between atoms: _244  and  _247
REMARK  105  A    between atoms: _247  and  _248
REMARK  106  A    between atoms: _251  and  _253
REMARK  107  A    between atoms: _253  and  _254
REMARK  108  A    between atoms: _256  and  _258
REMARK  109  A    between atoms: _258  and  _259
REMARK  110  A    between atoms: _258  and  _261
REMARK  111  A    between atoms: _261  and  _262
REMARK  112  A    between atoms: _262  and  _263
REMARK  113  A    between atoms: _263  and  _264
REMARK  114  A    between atoms: _273  and  _275
REMARK  115  A    between atoms: _275  and  _276
REMARK  116  A    between atoms: _275  and  _278
REMARK  117  A    between atoms: _278  and  _279
REMARK  118  A    between atoms: _284  and  _286
REMARK  119  A    between atoms: _286  and  _287
REMARK  120  A    between atoms: _286  and  _289
REMARK  121  A    between atoms: _289  and  _290
REMARK  122  A    between atoms: _290  and  _291
REMARK  123  A    between atoms: _291  and  _292
REMARK  124  A    between atoms: _301  and  _303
REMARK  125  A    between atoms: _303  and  _304
REMARK  126  A    between atoms: _303  and  _306
REMARK  127  A    between atoms: _306  and  _307
REMARK  128  A    between atoms: _310  and  _312
REMARK  129  A    between atoms: _312  and  _313
REMARK  130  A    between atoms: _312  and  _315
REMARK  131  A    between atoms: _315  and  _316
REMARK  132  A    between atoms: _319  and  _321
REMARK  133  A    between atoms: _321  and  _322
REMARK  134  A    between atoms: _321  and  _324
REMARK  135  A    between atoms: _324  and  _325
REMARK  136  A    between atoms: _328  and  _330
REMARK  137  A    between atoms: _330  and  _331
REMARK  138  A    between atoms: _330  and  _333
REMARK  139  A    between atoms: _333  and  _334
REMARK  140  A    between atoms: _337  and  _339
REMARK  141  A    between atoms: _339  and  _340
REMARK  142  A    between atoms: _342  and  _344
REMARK  143  A    between atoms: _344  and  _345
REMARK  144  A    between atoms: _348  and  _350
REMARK  145  A    between atoms: _350  and  _351
REMARK  146  A    between atoms: _350  and  _353
REMARK  147  A    between atoms: _353  and  _354
REMARK  148  A    between atoms: _357  and  _359
REMARK  149  A    between atoms: _359  and  _360
REMARK  150  A    between atoms: _359  and  _362
REMARK  151  A    between atoms: _362  and  _363
REMARK  152  A    between atoms: _366  and  _368
REMARK  153  A    between atoms: _368  and  _369
REMARK  154  A    between atoms: _368  and  _371
REMARK  155  A    between atoms: _371  and  _372
REMARK  156  A    between atoms: _375  and  _377
REMARK  157  A    between atoms: _377  and  _378
REMARK  158  A    between atoms: _377  and  _380
REMARK  159  A    between atoms: _383  and  _385
REMARK  160  A    between atoms: _385  and  _386
REMARK  161  A    between atoms: _385  and  _388
REMARK  162  A    between atoms: _388  and  _389
REMARK  163  A    between atoms: _389  and  _390
REMARK  164  A    between atoms: _390  and  _391
REMARK  165  A    between atoms: _391  and  _392
REMARK  166  A    between atoms: _396  and  _398
REMARK  167  A    between atoms: _398  and  _399
REMARK  168  A    between atoms: _398  and  _401
REMARK  169  A    between atoms: _401  and  _402
REMARK  170  A    between atoms: _402  and  _403
REMARK  171  A    between atoms: _405  and  _407
REMARK  172  A    between atoms: _407  and  _408
REMARK  173  A    between atoms: _407  and  _410
REMARK  174  A    between atoms: _410  and  _411
REMARK  175  A    between atoms: _414  and  _416
REMARK  176  A    between atoms: _416  and  _417
REMARK  177  A    between atoms: _419  and  _421
REMARK  178  A    between atoms: _421  and  _422
REMARK  179  A    between atoms: _424  and  _426
REMARK  180  A    between atoms: _426  and  _427
REMARK  181  A    between atoms: _426  and  _429
REMARK  182  A    between atoms: _429  and  _430
REMARK  183  A    between atoms: _433  and  _435
REMARK  184  A    between atoms: _435  and  _436
REMARK  185  A    between atoms: _438  and  _440
REMARK  186  A    between atoms: _440  and  _441
REMARK  187  A    between atoms: _443  and  _445
REMARK  188  A    between atoms: _445  and  _446
REMARK  189  A    between atoms: _445  and  _448
REMARK  190  A    between atoms: _448  and  _449
REMARK  191  A    between atoms: _455  and  _457
REMARK  192  A    between atoms: _457  and  _458
REMARK  193  A    between atoms: _457  and  _460
REMARK  194  A    between atoms: _460  and  _461
REMARK  195  A    between atoms: _464  and  _466
REMARK  196  A    between atoms: _466  and  _467
REMARK  197  A    between atoms: _466  and  _469
REMARK  198  A    between atoms: _472  and  _474
REMARK  199  A    between atoms: _474  and  _475
REMARK  200  A    between atoms: _474  and  _477
REMARK  201  A    between atoms: _477  and  _478
REMARK  202  A    between atoms: _481  and  _483
REMARK  203  A    between atoms: _483  and  _484
REMARK  204  A    between atoms: _483  and  _486
REMARK  205  A    between atoms: _486  and  _487
REMARK  206  A    between atoms: _491  and  _492
REMARK  207  A    between atoms: _497  and  _499
REMARK  208  A    between atoms: _499  and  _500
REMARK  209  A    between atoms: _499  and  _502
REMARK  210  A    between atoms: _505  and  _507
REMARK  211  A    between atoms: _507  and  _508
REMARK  212  A    between atoms: _507  and  _510
REMARK  213  A    between atoms: _510  and  _511
REMARK  214  A    between atoms: _516  and  _518
REMARK  215  A    between atoms: _518  and  _519
REMARK  216  A    between atoms: _518  and  _521
REMARK  217  A    between atoms: _521  and  _522
REMARK  218  A    between atoms: _525  and  _527
REMARK  219  A    between atoms: _527  and  _528
REMARK  220  A    between atoms: _527  and  _530
REMARK  221  A    between atoms: _530  and  _531
REMARK  222  A    between atoms: _534  and  _536
REMARK  223  A    between atoms: _536  and  _537
REMARK  224  A    between atoms: _539  and  _541
REMARK  225  A    between atoms: _541  and  _542
REMARK  226  A    between atoms: _541  and  _544
REMARK  227  A    between atoms: _544  and  _545
REMARK  228  A    between atoms: _545  and  _546
REMARK  229  A    between atoms: _546  and  _547
REMARK  230  A    between atoms: _556  and  _558
REMARK  231  A    between atoms: _558  and  _559
REMARK  232  A    between atoms: _558  and  _561
REMARK  233  A    between atoms: _561  and  _562
REMARK                            x       y       z     vdW  Elec       q    Type
REMARK                         _______ _______ _______ _____ _____    ______ ____
ROOT
ATOM      1  C   GLY A   5      16.880  28.111  19.793  0.00  0.00    +0.243 C 
ATOM      2  O   GLY A   5      17.965  27.532  19.941  0.00  0.00    -0.273 OA
ATOM      3  N   ALA A   6      16.592  28.813  18.701  0.00  0.00    -0.297 N 
ATOM      4  H   ALA A   6      15.665  29.284  18.666  0.00  0.00    +0.150 HD
ENDROOT
BRANCH   3   5
ATOM      5  CA  ALA A   6      17.468  28.975  17.553  0.00  0.00    +0.149 C 
ATOM      6  CB  ALA A   6      16.706  28.870  16.242  0.00  0.00    +0.031 C 
BRANCH   5   7
ATOM      7  C   ALA A   6      18.173  30.322  17.605  0.00  0.00    +0.241 C 
ATOM      8  N   ASP A   7      19.505  30.340  17.676  0.00  0.00    -0.297 N 
ATOM      9  H   ASP A   7      20.036  29.454  17.797  0.00  0.00    +0.150 HD
ATOM     10  O   ALA A   6      17.511  31.364  17.589  0.00  0.00    -0.273 OA
BRANCH   8  11
ATOM     11  CA  ASP A   7      20.205  31.604  17.583  0.00  0.00    +0.160 C 
BRANCH  11  12
ATOM     12  C   ASP A   7      20.046  32.281  16.232  0.00  0.00    +0.241 C 
ATOM     13  O   ASP A   7      19.949  33.516  16.124  0.00  0.00    -0.273 OA
ATOM     14  N   ASP A   8      20.042  31.426  15.210  0.00  0.00    -0.297 N 
ATOM     15  H   ASP A   8      20.037  30.408  15.425  0.00  0.00    +0.150 HD
BRANCH  14  16
ATOM     16  CA  ASP A   8      20.044  31.826  13.823  0.00  0.00    +0.160 C 
BRANCH  16  17
ATOM     17  C   ASP A   8      18.796  31.351  13.079  0.00  0.00    +0.241 C 
ATOM     18  O   ASP A   8      18.102  30.434  13.479  0.00  0.00    -0.273 OA
ATOM     19  N   THR A   9      18.517  31.997  11.969  0.00  0.00    -0.295 N 
ATOM     20  H   THR A   9      19.122  32.808  11.729  0.00  0.00    +0.150 HD
BRANCH  19  21
ATOM     21  CA  THR A   9      17.443  31.682  11.050  0.00  0.00    +0.176 C 
BRANCH  21  22
ATOM     22  C   THR A   9      17.969  30.722   9.995  0.00  0.00    +0.243 C 
ATOM     23  N   VAL A  10      17.266  29.605   9.820  0.00  0.00    -0.298 N 
ATOM     24  H   VAL A  10      16.369  29.482  10.332  0.00  0.00    +0.150 HD
ATOM     25  O   THR A   9      19.008  31.012   9.359  0.00  0.00    -0.273 OA
BRANCH  23  26
ATOM     26  CA  VAL A  10      17.728  28.553   8.927  0.00  0.00    +0.137 C 
BRANCH  26  27
ATOM     27  CB  VAL A  10      18.275  27.309   9.665  0.00  0.00    +0.026 C 
ATOM     28  CG2 VAL A  10      19.079  27.664  10.899  0.00  0.00    +0.002 C 
ATOM     29  CG1 VAL A  10      19.118  26.497   8.692  0.00  0.00    +0.002 C 
ENDBRANCH  26  27
BRANCH  26  30
ATOM     30  C   VAL A  10      16.568  28.149   8.017  0.00  0.00    +0.227 C 
ATOM     31  O   VAL A  10      15.524  27.722   8.506  0.00  0.00    -0.286 OA
ENDBRANCH  26  30
ENDBRANCH  23  26
ENDBRANCH  21  22
BRANCH  21  32
ATOM     32  CB  THR A   9      16.931  33.013  10.484  0.00  0.00    +0.137 C 
ATOM     33  CG2 THR A   9      15.918  32.782   9.390  0.00  0.00    +0.034 C 
BRANCH  32  34
ATOM     34  OG1 THR A   9      16.286  33.741  11.552  0.00  0.00    -0.382 OA
ATOM     35  HG1 THR A   9      16.939  33.908  12.277  0.00  0.00    +0.210 HD
ENDBRANCH  32  34
ENDBRANCH  21  32
ENDBRANCH  19  21
ENDBRANCH  16  17
BRANCH  16  36
ATOM     36  CB  ASP A   8      21.271  31.257  13.105  0.00  0.00    +0.143 C 
BRANCH  36  37
ATOM     37  CG  ASP A   8      22.564  31.502  13.824  0.00  0.00    +0.367 C 
ATOM     38  OD2 ASP A   8      22.681  32.596  14.399  0.00  0.00    -0.246 OA
ATOM     39  OD1 ASP A   8      23.427  30.611  13.804  0.00  0.00    -0.246 OA
ENDBRANCH  36  37
ENDBRANCH  16  36
ENDBRANCH  14  16
ENDBRANCH  11  12
BRANCH  11  40
ATOM     40  CB  ASP A   7      21.712  31.411  17.792  0.00  0.00    +0.143 C 
BRANCH  40  41
ATOM     41  CG  ASP A   7      22.117  30.829  19.130  0.00  0.00    +0.367 C 
ATOM     42  OD2 ASP A   7      21.374  30.907  20.133  0.00  0.00    -0.246 OA
ATOM     43  OD1 ASP A   7      23.234  30.289  19.139  0.00  0.00    -0.246 OA
ENDBRANCH  40  41
ENDBRANCH  11  40
ENDBRANCH   8  11
ENDBRANCH   5   7
ENDBRANCH   3   5
BRANCH   1  44
ATOM     44  CA  GLY A   5      15.827  28.043  20.874  0.00  0.00    +0.176 C 
BRANCH  44  47
ATOM     45  C   THR A   4      14.612  30.147  20.898  0.00  0.00    +0.243 C 
ATOM     46  O   THR A   4      15.532  30.747  21.434  0.00  0.00    -0.273 OA
ATOM     47  N   GLY A   5      14.651  28.860  20.610  0.00  0.00    -0.295 N 
ATOM     48  H   GLY A   5      13.815  28.415  20.181  0.00  0.00    +0.150 HD
BRANCH  45  49
ATOM     49  CA  THR A   4      13.351  30.945  20.546  0.00  0.00    +0.176 C 
BRANCH  49  51
ATOM     50  C   ASP A   3      12.954  30.102  18.311  0.00  0.00    +0.241 C 
ATOM     51  N   THR A   4      12.527  30.263  19.572  0.00  0.00    -0.295 N 
ATOM     52  H   THR A   4      11.596  29.894  19.852  0.00  0.00    +0.150 HD
ATOM     53  O   ASP A   3      14.052  30.502  17.939  0.00  0.00    -0.273 OA
BRANCH  50  54
ATOM     54  CA  ASP A   3      11.993  29.379  17.377  0.00  0.00    +0.160 C 
BRANCH  54  57
ATOM     55  C   LEU A   2       9.872  30.166  16.547  0.00  0.00    +0.241 C 
ATOM     56  O   LEU A   2       9.247  29.571  17.415  0.00  0.00    -0.273 OA
ATOM     57  N   ASP A   3      11.198  30.240  16.520  0.00  0.00    -0.297 N 
ATOM     58  H   ASP A   3      11.667  30.916  15.884  0.00  0.00    +0.150 HD
BRANCH  55  59
ATOM     59  CA  LEU A   2       9.128  30.856  15.411  0.00  0.00    +0.149 C 
BRANCH  59  61
ATOM     60  C   LEU A   1       9.324  29.158  13.691  0.00  0.00    +0.238 C 
ATOM     61  N   LEU A   2       8.554  29.824  14.542  0.00  0.00    -0.297 N 
ATOM     62  H   LEU A   2       7.537  29.613  14.593  0.00  0.00    +0.150 HD
ATOM     63  O   LEU A   1      10.512  29.444  13.466  0.00  0.00    -0.274 OA
BRANCH  60  64
ATOM     64  CA  LEU A   1       8.748  27.984  12.937  0.00  0.00    +0.145 C 
BRANCH  64  65
ATOM     65  N   LEU A   1       8.931  28.149  11.512  0.00  0.00    -0.238 NA
ATOM     66  H   LEU A   1       9.810  27.790  11.088  0.00  0.00    +0.142 HD
ENDBRANCH  64  65
BRANCH  64  67
ATOM     67  CB  LEU A   1       9.426  26.658  13.279  0.00  0.00    +0.026 C 
BRANCH  67  68
ATOM     68  CG  LEU A   1       9.243  26.045  14.636  0.00  0.00    +0.002 C 
ATOM     69  CD2 LEU A   1       7.792  25.688  14.856  0.00  0.00    +0.000 C 
ATOM     70  CD1 LEU A   1      10.114  24.802  14.790  0.00  0.00    +0.000 C 
ENDBRANCH  67  68
ENDBRANCH  64  67
ENDBRANCH  60  64
ENDBRANCH  59  61
BRANCH  59  71
ATOM     71  CB  LEU A   2       8.068  31.792  15.951  0.00  0.00    +0.029 C 
BRANCH  71  72
ATOM     72  CG  LEU A   2       7.224  32.543  14.916  0.00  0.00    +0.002 C 
ATOM     73  CD2 LEU A   2       6.148  33.325  15.651  0.00  0.00    +0.000 C 
ATOM     74  CD1 LEU A   2       8.072  33.449  14.050  0.00  0.00    +0.000 C 
ENDBRANCH  71  72
ENDBRANCH  59  71
ENDBRANCH  55  59
ENDBRANCH  54  57
BRANCH  54  75
ATOM     75  CB  ASP A   3      12.793  28.459  16.457  0.00  0.00    +0.143 C 
BRANCH  75  76
ATOM     76  CG  ASP A   3      13.453  27.317  17.194  0.00  0.00    +0.367 C 
ATOM     77  OD2 ASP A   3      13.374  27.337  18.449  0.00  0.00    -0.246 OA
ATOM     78  OD1 ASP A   3      14.035  26.432  16.535  0.00  0.00    -0.246 OA
ENDBRANCH  75  76
ENDBRANCH  54  75
ENDBRANCH  50  54
ENDBRANCH  49  51
BRANCH  49  79
ATOM     79  CB  THR A   4      12.562  31.214  21.836  0.00  0.00    +0.137 C 
ATOM     80  CG2 THR A   4      11.342  32.056  21.530  0.00  0.00    +0.034 C 
BRANCH  79  81
ATOM     81  OG1 THR A   4      12.077  29.973  22.380  0.00  0.00    -0.382 OA
ATOM     82  HG1 THR A   4      12.844  29.381  22.583  0.00  0.00    +0.210 HD
ENDBRANCH  79  81
ENDBRANCH  49  79
ENDBRANCH  45  49
ENDBRANCH  44  47
ENDBRANCH   1  44
TORSDOF 35
REMARK  Name = ../refined-set-2016/2z4o/2z4o_pocket.pdb
REMARK  233 active torsions:
REMARK  status: ('A' for Active; 'I' for Inactive)
REMARK    1  A    between atoms: _1  and  _3
REMARK    2  A    between atoms: _3  and  _4
REMARK    3  A    between atoms: _3  and  _6
REMARK    4  A    between atoms: _6  and  _7
REMARK    5  A    between atoms: _7  and  _8
REMARK    6  A    between atoms: _8  and  _9
REMARK    7  A    between atoms: _11  and  _15
REMARK    8  A    between atoms: _18  and  _20
REMARK    9  A    between atoms: _20  and  _21
REMARK   10  A    between atoms: _20  and  _23
REMARK   11  A    between atoms: _23  and  _24
REMARK   12  A    between atoms: _27  and  _29
REMARK   13  A    between atoms: _29  and  _30
REMARK   14  A    between atoms: _29  and  _32
REMARK   15  A    between atoms: _32  and  _33
REMARK   16  A    between atoms: _36  and  _38
REMARK   17  A    between atoms: _38  and  _39
REMARK   18  A    between atoms: _38  and  _41
REMARK   19  A    between atoms: _41  and  _42
REMARK   20  A    between atoms: _45  and  _47
REMARK   21  A    between atoms: _47  and  _48
REMARK   22  A    between atoms: _47  and  _50
REMARK   23  A    between atoms: _50  and  _51
REMARK   24  A    between atoms: _54  and  _56
REMARK   25  A    between atoms: _56  and  _57
REMARK   26  A    between atoms: _59  and  _61
REMARK   27  A    between atoms: _61  and  _62
REMARK   28  A    between atoms: _65  and  _67
REMARK   29  A    between atoms: _67  and  _68
REMARK   30  A    between atoms: _67  and  _70
REMARK   31  A    between atoms: _70  and  _71
REMARK   32  A    between atoms: _74  and  _76
REMARK   33  A    between atoms: _76  and  _77
REMARK   34  A    between atoms: _76  and  _79
REMARK   35  A    between atoms: _79  and  _80
REMARK   36  A    between atoms: _83  and  _85
REMARK   37  A    between atoms: _85  and  _86
REMARK   38  A    between atoms: _85  and  _88
REMARK   39  A    between atoms: _88  and  _89
REMARK   40  A    between atoms: _92  and  _94
REMARK   41  A    between atoms: _94  and  _95
REMARK   42  A    between atoms: _94  and  _97
REMARK   43  A    between atoms: _100  and  _102
REMARK   44  A    between atoms: _102  and  _103
REMARK   45  A    between atoms: _102  and  _105
REMARK   46  A    between atoms: _105  and  _106
REMARK   47  A    between atoms: _106  and  _107
REMARK   48  A    between atoms: _107  and  _108
REMARK   49  A    between atoms: _108  and  _109
REMARK   50  A    between atoms: _113  and  _115
REMARK   51  A    between atoms: _115  and  _116
REMARK   52  A    between atoms: _115  and  _118
REMARK   53  A    between atoms: _118  and  _119
REMARK   54  A    between atoms: _119  and  _120
REMARK   55  A    between atoms: _122  and  _124
REMARK   56  A    between atoms: _124  and  _125
REMARK   57  A    between atoms: _124  and  _127
REMARK   58  A    between atoms: _127  and  _128
REMARK   59  A    between atoms: _131  and  _133
REMARK   60  A    between atoms: _133  and  _134
REMARK   61  A    between atoms: _136  and  _138
REMARK   62  A    between atoms: _138  and  _139
REMARK   63  A    between atoms: _141  and  _143
REMARK   64  A    between atoms: _143  and  _144
REMARK   65  A    between atoms: _143  and  _146
REMARK   66  A    between atoms: _146  and  _147
REMARK   67  A    between atoms: _150  and  _152
REMARK   68  A    between atoms: _152  and  _153
REMARK   69  A    between atoms: _155  and  _157
REMARK   70  A    between atoms: _157  and  _158
REMARK   71  A    between atoms: _160  and  _162
REMARK   72  A    between atoms: _162  and  _163
REMARK   73  A    between atoms: _162  and  _165
REMARK   74  A    between atoms: _165  and  _166
REMARK   75  A    between atoms: _172  and  _174
REMARK   76  A    between atoms: _174  and  _175
REMARK   77  A    between atoms: _174  and  _177
REMARK   78  A    between atoms: _177  and  _178
REMARK   79  A    between atoms: _181  and  _183
REMARK   80  A    between atoms: _183  and  _184
REMARK   81  A    between atoms: _183  and  _186
REMARK   82  A    between atoms: _189  and  _191
REMARK   83  A    between atoms: _191  and  _192
REMARK   84  A    between atoms: _191  and  _194
REMARK   85  A    between atoms: _194  and  _195
REMARK   86  A    between atoms: _198  and  _200
REMARK   87  A    between atoms: _200  and  _201
REMARK   88  A    between atoms: _200  and  _203
REMARK   89  A    between atoms: _203  and  _204
REMARK   90  A    between atoms: _208  and  _209
REMARK   91  A    between atoms: _214  and  _216
REMARK   92  A    between atoms: _216  and  _217
REMARK   93  A    between atoms: _216  and  _219
REMARK   94  A    between atoms: _222  and  _224
REMARK   95  A    between atoms: _224  and  _225
REMARK   96  A    between atoms: _224  and  _227
REMARK   97  A    between atoms: _227  and  _228
REMARK   98  A    between atoms: _233  and  _235
REMARK   99  A    between atoms: _235  and  _236
REMARK  100  A    between atoms: _235  and  _238
REMARK  101  A    between atoms: _238  and  _239
REMARK  102  A    between atoms: _242  and  _244
REMARK  103  A    between atoms: _244  and  _245
REMARK  104  A    between atoms: _244  and  _247
REMARK  105  A    between atoms: _247  and  _248
REMARK  106  A    between atoms: _251  and  _253
REMARK  107  A    between atoms: _253  and  _254
REMARK  108  A    between atoms: _256  and  _258
REMARK  109  A    between atoms: _258  and  _259
REMARK  110  A    between atoms: _258  and  _261
REMARK  111  A    between atoms: _261  and  _262
REMARK  112  A    between atoms: _262  and  _263
REMARK  113  A    between atoms: _263  and  _264
REMARK  114  A    between atoms: _273  and  _275
REMARK  115  A    between atoms: _275  and  _276
REMARK  116  A    between atoms: _275  and  _278
REMARK  117  A    between atoms: _278  and  _279
REMARK  118  A    between atoms: _284  and  _286
REMARK  119  A    between atoms: _286  and  _287
REMARK  120  A    between atoms: _286  and  _289
REMARK  121  A    between atoms: _289  and  _290
REMARK  122  A    between atoms: _290  and  _291
REMARK  123  A    between atoms: _291  and  _292
REMARK  124  A    between atoms: _301  and  _303
REMARK  125  A    between atoms: _303  and  _304
REMARK  126  A    between atoms: _303  and  _306
REMARK  127  A    between atoms: _306  and  _307
REMARK  128  A    between atoms: _310  and  _312
REMARK  129  A    between atoms: _312  and  _313
REMARK  130  A    between atoms: _312  and  _315
REMARK  131  A    between atoms: _315  and  _316
REMARK  132  A    between atoms: _319  and  _321
REMARK  133  A    between atoms: _321  and  _322
REMARK  134  A    between atoms: _321  and  _324
REMARK  135  A    between atoms: _324  and  _325
REMARK  136  A    between atoms: _328  and  _330
REMARK  137  A    between atoms: _330  and  _331
REMARK  138  A    between atoms: _330  and  _333
REMARK  139  A    between atoms: _333  and  _334
REMARK  140  A    between atoms: _337  and  _339
REMARK  141  A    between atoms: _339  and  _340
REMARK  142  A    between atoms: _342  and  _344
REMARK  143  A    between atoms: _344  and  _345
REMARK  144  A    between atoms: _348  and  _350
REMARK  145  A    between atoms: _350  and  _351
REMARK  146  A    between atoms: _350  and  _353
REMARK  147  A    between atoms: _353  and  _354
REMARK  148  A    between atoms: _357  and  _359
REMARK  149  A    between atoms: _359  and  _360
REMARK  150  A    between atoms: _359  and  _362
REMARK  151  A    between atoms: _362  and  _363
REMARK  152  A    between atoms: _366  and  _368
REMARK  153  A    between atoms: _368  and  _369
REMARK  154  A    between atoms: _368  and  _371
REMARK  155  A    between atoms: _371  and  _372
REMARK  156  A    between atoms: _375  and  _377
REMARK  157  A    between atoms: _377  and  _378
REMARK  158  A    between atoms: _377  and  _380
REMARK  159  A    between atoms: _383  and  _385
REMARK  160  A    between atoms: _385  and  _386
REMARK  161  A    between atoms: _385  and  _388
REMARK  162  A    between atoms: _388  and  _389
REMARK  163  A    between atoms: _389  and  _390
REMARK  164  A    between atoms: _390  and  _391
REMARK  165  A    between atoms: _391  and  _392
REMARK  166  A    between atoms: _396  and  _398
REMARK  167  A    between atoms: _398  and  _399
REMARK  168  A    between atoms: _398  and  _401
REMARK  169  A    between atoms: _401  and  _402
REMARK  170  A    between atoms: _402  and  _403
REMARK  171  A    between atoms: _405  and  _407
REMARK  172  A    between atoms: _407  and  _408
REMARK  173  A    between atoms: _407  and  _410
REMARK  174  A    between atoms: _410  and  _411
REMARK  175  A    between atoms: _414  and  _416
REMARK  176  A    between atoms: _416  and  _417
REMARK  177  A    between atoms: _419  and  _421
REMARK  178  A    between atoms: _421  and  _422
REMARK  179  A    between atoms: _424  and  _426
REMARK  180  A    between atoms: _426  and  _427
REMARK  181  A    between atoms: _426  and  _429
REMARK  182  A    between atoms: _429  and  _430
REMARK  183  A    between atoms: _433  and  _435
REMARK  184  A    between atoms: _435  and  _436
REMARK  185  A    between atoms: _438  and  _440
REMARK  186  A    between atoms: _440  and  _441
REMARK  187  A    between atoms: _443  and  _445
REMARK  188  A    between atoms: _445  and  _446
REMARK  189  A    between atoms: _445  and  _448
REMARK  190  A    between atoms: _448  and  _449
REMARK  191  A    between atoms: _455  and  _457
REMARK  192  A    between atoms: _457  and  _458
REMARK  193  A    between atoms: _457  and  _460
REMARK  194  A    between atoms: _460  and  _461
REMARK  195  A    between atoms: _464  and  _466
REMARK  196  A    between atoms: _466  and  _467
REMARK  197  A    between atoms: _466  and  _469
REMARK  198  A    between atoms: _472  and  _474
REMARK  199  A    between atoms: _474  and  _475
REMARK  200  A    between atoms: _474  and  _477
REMARK  201  A    between atoms: _477  and  _478
REMARK  202  A    between atoms: _481  and  _483
REMARK  203  A    between atoms: _483  and  _484
REMARK  204  A    between atoms: _483  and  _486
REMARK  205  A    between atoms: _486  and  _487
REMARK  206  A    between atoms: _491  and  _492
REMARK  207  A    between atoms: _497  and  _499
REMARK  208  A    between atoms: _499  and  _500
REMARK  209  A    between atoms: _499  and  _502
REMARK  210  A    between atoms: _505  and  _507
REMARK  211  A    between atoms: _507  and  _508
REMARK  212  A    between atoms: _507  and  _510
REMARK  213  A    between atoms: _510  and  _511
REMARK  214  A    between atoms: _516  and  _518
REMARK  215  A    between atoms: _518  and  _519
REMARK  216  A    between atoms: _518  and  _521
REMARK  217  A    between atoms: _521  and  _522
REMARK  218  A    between atoms: _525  and  _527
REMARK  219  A    between atoms: _527  and  _528
REMARK  220  A    between atoms: _527  and  _530
REMARK  221  A    between atoms: _530  and  _531
REMARK  222  A    between atoms: _534  and  _536
REMARK  223  A    between atoms: _536  and  _537
REMARK  224  A    between atoms: _539  and  _541
REMARK  225  A    between atoms: _541  and  _542
REMARK  226  A    between atoms: _541  and  _544
REMARK  227  A    between atoms: _544  and  _545
REMARK  228  A    between atoms: _545  and  _546
REMARK  229  A    between atoms: _546  and  _547
REMARK  230  A    between atoms: _556  and  _558
REMARK  231  A    between atoms: _558  and  _559
REMARK  232  A    between atoms: _558  and  _561
REMARK  233  A    between atoms: _561  and  _562
REMARK                            x       y       z     vdW  Elec       q    Type
REMARK                         _______ _______ _______ _____ _____    ______ ____
ROOT
ATOM      1  C   GLY A   5      21.658  19.546  17.448  0.00  0.00    +0.243 C 
ATOM      2  N   ILE A   6      20.444  19.130  17.809  0.00  0.00    -0.297 N 
ATOM      3  H   ILE A   6      19.636  19.785  17.818  0.00  0.00    +0.150 HD
ATOM      4  O   GLY A   5      22.719  18.922  17.487  0.00  0.00    -0.273 OA
ENDROOT
BRANCH   1   5
ATOM      5  CA  GLY A   5      21.753  20.977  16.954  0.00  0.00    +0.176 C 
BRANCH   5   8
ATOM      6  C   GLY A   4      23.566  22.245  16.063  0.00  0.00    +0.243 C 
ATOM      7  O   GLY A   4      23.199  23.265  16.645  0.00  0.00    -0.273 OA
ATOM      8  N   GLY A   5      22.958  21.079  16.174  0.00  0.00    -0.295 N 
ATOM      9  H   GLY A   5      23.347  20.239  15.701  0.00  0.00    +0.150 HD
BRANCH   6  10
ATOM     10  CA  GLY A   4      24.759  22.225  15.154  0.00  0.00    +0.176 C 
BRANCH  10  12
ATOM     11  C   ILE A   3      25.083  23.501  13.130  0.00  0.00    +0.241 C 
ATOM     12  N   GLY A   4      24.988  23.467  14.468  0.00  0.00    -0.295 N 
ATOM     13  H   GLY A   4      25.081  24.347  15.014  0.00  0.00    +0.150 HD
ATOM     14  O   ILE A   3      24.841  22.540  12.413  0.00  0.00    -0.273 OA
BRANCH  11  15
ATOM     15  CA  ILE A   3      25.544  24.855  12.599  0.00  0.00    +0.149 C 
BRANCH  15  18
ATOM     16  C   MET A   2      27.585  25.158  11.309  0.00  0.00    +0.241 C 
ATOM     17  O   MET A   2      28.068  25.954  12.116  0.00  0.00    -0.273 OA
ATOM     18  N   ILE A   3      26.389  24.631  11.427  0.00  0.00    -0.297 N 
ATOM     19  H   ILE A   3      26.028  24.031  10.658  0.00  0.00    +0.150 HD
BRANCH  16  20
ATOM     20  CA  MET A   2      28.415  24.745  10.093  0.00  0.00    +0.149 C 
BRANCH  20  22
ATOM     21  C   LYS A   1      28.558  26.340   8.283  0.00  0.00    +0.238 C 
ATOM     22  N   MET A   2      28.965  25.923   9.475  0.00  0.00    -0.297 N 
ATOM     23  H   MET A   2      29.701  26.461   9.976  0.00  0.00    +0.150 HD
ATOM     24  O   LYS A   1      27.850  25.682   7.516  0.00  0.00    -0.274 OA
BRANCH  21  25
ATOM     25  CA  LYS A   1      29.019  27.734   7.880  0.00  0.00    +0.145 C 
BRANCH  25  26
ATOM     26  N   LYS A   1      29.127  27.818   6.439  0.00  0.00    -0.238 NA
ATOM     27  H   LYS A   1      28.490  27.226   5.868  0.00  0.00    +0.142 HD
ENDBRANCH  25  26
BRANCH  25  28
ATOM     28  CB  LYS A   1      28.038  28.774   8.372  0.00  0.00    +0.026 C 
BRANCH  28  29
ATOM     29  CG  LYS A   1      28.036  29.100   9.850  0.00  0.00    -0.000 C 
BRANCH  29  30
ATOM     30  CD  LYS A   1      26.904  30.082  10.153  0.00  0.00    -0.024 C 
BRANCH  30  31
ATOM     31  CE  LYS A   1      26.767  30.446  11.607  0.00  0.00    -0.086 C 
BRANCH  31  32
ATOM     32  NZ  LYS A   1      27.947  31.208  12.069  0.00  0.00    +0.380 N 
ATOM     33  HZ1 LYS A   1      27.831  31.448  13.074  0.00  0.00    -0.089 HD
ATOM     34  HZ2 LYS A   1      28.802  30.629  11.946  0.00  0.00    -0.089 HD
ATOM     35  HZ3 LYS A   1      28.035  32.081  11.510  0.00  0.00    -0.089 HD
ENDBRANCH  31  32
ENDBRANCH  30  31
ENDBRANCH  29  30
ENDBRANCH  28  29
ENDBRANCH  25  28
ENDBRANCH  21  25
ENDBRANCH  20  22
BRANCH  20  36
ATOM     36  CB  MET A   2      29.521  23.811  10.550  0.00  0.00    +0.041 C 
BRANCH  36  37
ATOM     37  CG  MET A   2      30.256  23.133   9.408  0.00  0.00    +0.060 C 
BRANCH  37  38
ATOM     38  SD  MET A   2      29.279  21.768   8.774  0.00  0.00    -0.139 S 
ATOM     39  CE  MET A   2      29.832  20.460   9.890  0.00  0.00    +0.069 C 
ENDBRANCH  37  38
ENDBRANCH  36  37
ENDBRANCH  20  36
ENDBRANCH  16  20
ENDBRANCH  15  18
BRANCH  15  40
ATOM     40  CB  ILE A   3      24.344  25.757  12.295  0.00  0.00    +0.027 C 
ATOM     41  CG2 ILE A   3      24.821  27.175  12.047  0.00  0.00    +0.002 C 
BRANCH  40  42
ATOM     42  CG1 ILE A   3      23.485  25.219  11.151  0.00  0.00    +0.002 C 
ATOM     43  CD1 ILE A   3      22.137  25.915  11.086  0.00  0.00    +0.000 C 
ENDBRANCH  40  42
ENDBRANCH  15  40
ENDBRANCH  11  15
ENDBRANCH  10  12
ENDBRANCH   6  10
ENDBRANCH   5   8
ENDBRANCH   1   5
BRANCH   2  44
ATOM     44  CA  ILE A   6      20.279  17.734  18.191  0.00  0.00    +0.149 C 
BRANCH  44  45
ATOM     45  C   ILE A   6      20.530  16.905  16.957  0.00  0.00    +0.241 C 
ATOM     46  N   GLY A   7      21.254  15.791  17.060  0.00  0.00    -0.295 N 
ATOM     47  H   GLY A   7      21.592  15.446  17.981  0.00  0.00    +0.150 HD
ATOM     48  O   ILE A   6      20.087  17.231  15.852  0.00  0.00    -0.273 OA
BRANCH  46  49
ATOM     49  CA  GLY A   7      21.547  15.086  15.836  0.00  0.00    +0.176 C 
BRANCH  49  50
ATOM     50  C   GLY A   7      22.876  15.530  15.254  0.00  0.00    +0.243 C 
ATOM     51  N   GLY A   8      23.513  16.616  15.649  0.00  0.00    -0.295 N 
ATOM     52  H   GLY A   8      23.122  17.195  16.419  0.00  0.00    +0.150 HD
ATOM     53  O   GLY A   7      23.327  14.808  14.375  0.00  0.00    -0.273 OA
BRANCH  51  54
ATOM     54  CA  GLY A   8      24.759  17.005  15.012  0.00  0.00    +0.176 C 
BRANCH  54  55
ATOM     55  C   GLY A   8      24.696  18.254  14.158  0.00  0.00    +0.243 C 
ATOM     56  O   GLY A   8      23.823  19.093  14.350  0.00  0.00    -0.273 OA
ATOM     57  N   PHE A   9      25.648  18.359  13.213  0.00  0.00    -0.297 N 
ATOM     58  H   PHE A   9      26.283  17.555  13.031  0.00  0.00    +0.150 HD
BRANCH  57  59
ATOM     59  CA  PHE A   9      25.799  19.574  12.448  0.00  0.00    +0.153 C 
BRANCH  59  60
ATOM     60  C   PHE A   9      25.383  19.442  10.998  0.00  0.00    +0.241 C 
ATOM     61  O   PHE A   9      25.461  18.349  10.443  0.00  0.00    -0.273 OA
ATOM     62  N   ILE A  10      24.959  20.535  10.404  0.00  0.00    -0.298 N 
ATOM     63  H   ILE A  10      24.765  21.378  10.982  0.00  0.00    +0.150 HD
BRANCH  62  64
ATOM     64  CA  ILE A  10      24.752  20.606   8.964  0.00  0.00    +0.137 C 
BRANCH  64  65
ATOM     65  CB  ILE A  10      23.268  20.764   8.604  0.00  0.00    +0.026 C 
ATOM     66  CG2 ILE A  10      22.522  19.528   9.072  0.00  0.00    +0.002 C 
BRANCH  65  67
ATOM     67  CG1 ILE A  10      22.620  22.043   9.127  0.00  0.00    +0.002 C 
ATOM     68  CD1 ILE A  10      21.260  22.350   8.527  0.00  0.00    +0.000 C 
ENDBRANCH  65  67
ENDBRANCH  64  65
BRANCH  64  69
ATOM     69  C   ILE A  10      25.554  21.770   8.388  0.00  0.00    +0.227 C 
ATOM     70  O   ILE A  10      25.826  22.779   9.049  0.00  0.00    -0.286 OA
ENDBRANCH  64  69
ENDBRANCH  62  64
ENDBRANCH  59  60
BRANCH  59  71
ATOM     71  CB  PHE A   9      27.268  19.996  12.427  0.00  0.00    +0.055 C 
BRANCH  71  72
ATOM     72  CG  PHE A   9      27.725  20.609  13.734  0.00  0.00    -0.020 A 
ATOM     73  CD2 PHE A   9      27.918  19.799  14.829  0.00  0.00    -0.004 A 
ATOM     74  CE2 PHE A   9      28.334  20.373  16.007  0.00  0.00    -0.000 A 
ATOM     75  CZ  PHE A   9      28.545  21.736  16.077  0.00  0.00    -0.000 A 
ATOM     76  CE1 PHE A   9      28.351  22.542  14.987  0.00  0.00    -0.000 A 
ATOM     77  CD1 PHE A   9      27.941  21.958  13.813  0.00  0.00    -0.004 A 
ENDBRANCH  71  72
ENDBRANCH  59  71
ENDBRANCH  57  59
ENDBRANCH  54  55
ENDBRANCH  51  54
ENDBRANCH  49  50
ENDBRANCH  46  49
ENDBRANCH  44  45
BRANCH  44  78
ATOM     78  CB  ILE A   6      18.881  17.502  18.788  0.00  0.00    +0.027 C 
ATOM     79  CG2 ILE A   6      18.465  16.076  18.546  0.00  0.00    +0.002 C 
BRANCH  78  80
ATOM     80  CG1 ILE A   6      18.684  17.823  20.267  0.00  0.00    +0.002 C 
ATOM     81  CD1 ILE A   6      17.275  17.824  20.769  0.00  0.00    +0.000 C 
ENDBRANCH  78  80
ENDBRANCH  44  78
ENDBRANCH   2  44
TORSDOF 36
REMARK  Name = ../refined-set-2016/2z4o/2z4o_pocket.pdb
REMARK  233 active torsions:
REMARK  status: ('A' for Active; 'I' for Inactive)
REMARK    1  A    between atoms: _1  and  _3
REMARK    2  A    between atoms: _3  and  _4
REMARK    3  A    between atoms: _3  and  _6
REMARK    4  A    between atoms: _6  and  _7
REMARK    5  A    between atoms: _7  and  _8
REMARK    6  A    between atoms: _8  and  _9
REMARK    7  A    between atoms: _11  and  _15
REMARK    8  A    between atoms: _18  and  _20
REMARK    9  A    between atoms: _20  and  _21
REMARK   10  A    between atoms: _20  and  _23
REMARK   11  A    between atoms: _23  and  _24
REMARK   12  A    between atoms: _27  and  _29
REMARK   13  A    between atoms: _29  and  _30
REMARK   14  A    between atoms: _29  and  _32
REMARK   15  A    between atoms: _32  and  _33
REMARK   16  A    between atoms: _36  and  _38
REMARK   17  A    between atoms: _38  and  _39
REMARK   18  A    between atoms: _38  and  _41
REMARK   19  A    between atoms: _41  and  _42
REMARK   20  A    between atoms: _45  and  _47
REMARK   21  A    between atoms: _47  and  _48
REMARK   22  A    between atoms: _47  and  _50
REMARK   23  A    between atoms: _50  and  _51
REMARK   24  A    between atoms: _54  and  _56
REMARK   25  A    between atoms: _56  and  _57
REMARK   26  A    between atoms: _59  and  _61
REMARK   27  A    between atoms: _61  and  _62
REMARK   28  A    between atoms: _65  and  _67
REMARK   29  A    between atoms: _67  and  _68
REMARK   30  A    between atoms: _67  and  _70
REMARK   31  A    between atoms: _70  and  _71
REMARK   32  A    between atoms: _74  and  _76
REMARK   33  A    between atoms: _76  and  _77
REMARK   34  A    between atoms: _76  and  _79
REMARK   35  A    between atoms: _79  and  _80
REMARK   36  A    between atoms: _83  and  _85
REMARK   37  A    between atoms: _85  and  _86
REMARK   38  A    between atoms: _85  and  _88
REMARK   39  A    between atoms: _88  and  _89
REMARK   40  A    between atoms: _92  and  _94
REMARK   41  A    between atoms: _94  and  _95
REMARK   42  A    between atoms: _94  and  _97
REMARK   43  A    between atoms: _100  and  _102
REMARK   44  A    between atoms: _102  and  _103
REMARK   45  A    between atoms: _102  and  _105
REMARK   46  A    between atoms: _105  and  _106
REMARK   47  A    between atoms: _106  and  _107
REMARK   48  A    between atoms: _107  and  _108
REMARK   49  A    between atoms: _108  and  _109
REMARK   50  A    between atoms: _113  and  _115
REMARK   51  A    between atoms: _115  and  _116
REMARK   52  A    between atoms: _115  and  _118
REMARK   53  A    between atoms: _118  and  _119
REMARK   54  A    between atoms: _119  and  _120
REMARK   55  A    between atoms: _122  and  _124
REMARK   56  A    between atoms: _124  and  _125
REMARK   57  A    between atoms: _124  and  _127
REMARK   58  A    between atoms: _127  and  _128
REMARK   59  A    between atoms: _131  and  _133
REMARK   60  A    between atoms: _133  and  _134
REMARK   61  A    between atoms: _136  and  _138
REMARK   62  A    between atoms: _138  and  _139
REMARK   63  A    between atoms: _141  and  _143
REMARK   64  A    between atoms: _143  and  _144
REMARK   65  A    between atoms: _143  and  _146
REMARK   66  A    between atoms: _146  and  _147
REMARK   67  A    between atoms: _150  and  _152
REMARK   68  A    between atoms: _152  and  _153
REMARK   69  A    between atoms: _155  and  _157
REMARK   70  A    between atoms: _157  and  _158
REMARK   71  A    between atoms: _160  and  _162
REMARK   72  A    between atoms: _162  and  _163
REMARK   73  A    between atoms: _162  and  _165
REMARK   74  A    between atoms: _165  and  _166
REMARK   75  A    between atoms: _172  and  _174
REMARK   76  A    between atoms: _174  and  _175
REMARK   77  A    between atoms: _174  and  _177
REMARK   78  A    between atoms: _177  and  _178
REMARK   79  A    between atoms: _181  and  _183
REMARK   80  A    between atoms: _183  and  _184
REMARK   81  A    between atoms: _183  and  _186
REMARK   82  A    between atoms: _189  and  _191
REMARK   83  A    between atoms: _191  and  _192
REMARK   84  A    between atoms: _191  and  _194
REMARK   85  A    between atoms: _194  and  _195
REMARK   86  A    between atoms: _198  and  _200
REMARK   87  A    between atoms: _200  and  _201
REMARK   88  A    between atoms: _200  and  _203
REMARK   89  A    between atoms: _203  and  _204
REMARK   90  A    between atoms: _208  and  _209
REMARK   91  A    between atoms: _214  and  _216
REMARK   92  A    between atoms: _216  and  _217
REMARK   93  A    between atoms: _216  and  _219
REMARK   94  A    between atoms: _222  and  _224
REMARK   95  A    between atoms: _224  and  _225
REMARK   96  A    between atoms: _224  and  _227
REMARK   97  A    between atoms: _227  and  _228
REMARK   98  A    between atoms: _233  and  _235
REMARK   99  A    between atoms: _235  and  _236
REMARK  100  A    between atoms: _235  and  _238
REMARK  101  A    between atoms: _238  and  _239
REMARK  102  A    between atoms: _242  and  _244
REMARK  103  A    between atoms: _244  and  _245
REMARK  104  A    between atoms: _244  and  _247
REMARK  105  A    between atoms: _247  and  _248
REMARK  106  A    between atoms: _251  and  _253
REMARK  107  A    between atoms: _253  and  _254
REMARK  108  A    between atoms: _256  and  _258
REMARK  109  A    between atoms: _258  and  _259
REMARK  110  A    between atoms: _258  and  _261
REMARK  111  A    between atoms: _261  and  _262
REMARK  112  A    between atoms: _262  and  _263
REMARK  113  A    between atoms: _263  and  _264
REMARK  114  A    between atoms: _273  and  _275
REMARK  115  A    between atoms: _275  and  _276
REMARK  116  A    between atoms: _275  and  _278
REMARK  117  A    between atoms: _278  and  _279
REMARK  118  A    between atoms: _284  and  _286
REMARK  119  A    between atoms: _286  and  _287
REMARK  120  A    between atoms: _286  and  _289
REMARK  121  A    between atoms: _289  and  _290
REMARK  122  A    between atoms: _290  and  _291
REMARK  123  A    between atoms: _291  and  _292
REMARK  124  A    between atoms: _301  and  _303
REMARK  125  A    between atoms: _303  and  _304
REMARK  126  A    between atoms: _303  and  _306
REMARK  127  A    between atoms: _306  and  _307
REMARK  128  A    between atoms: _310  and  _312
REMARK  129  A    between atoms: _312  and  _313
REMARK  130  A    between atoms: _312  and  _315
REMARK  131  A    between atoms: _315  and  _316
REMARK  132  A    between atoms: _319  and  _321
REMARK  133  A    between atoms: _321  and  _322
REMARK  134  A    between atoms: _321  and  _324
REMARK  135  A    between atoms: _324  and  _325
REMARK  136  A    between atoms: _328  and  _330
REMARK  137  A    between atoms: _330  and  _331
REMARK  138  A    between atoms: _330  and  _333
REMARK  139  A    between atoms: _333  and  _334
REMARK  140  A    between atoms: _337  and  _339
REMARK  141  A    between atoms: _339  and  _340
REMARK  142  A    between atoms: _342  and  _344
REMARK  143  A    between atoms: _344  and  _345
REMARK  144  A    between atoms: _348  and  _350
REMARK  145  A    between atoms: _350  and  _351
REMARK  146  A    between atoms: _350  and  _353
REMARK  147  A    between atoms: _353  and  _354
REMARK  148  A    between atoms: _357  and  _359
REMARK  149  A    between atoms: _359  and  _360
REMARK  150  A    between atoms: _359  and  _362
REMARK  151  A    between atoms: _362  and  _363
REMARK  152  A    between atoms: _366  and  _368
REMARK  153  A    between atoms: _368  and  _369
REMARK  154  A    between atoms: _368  and  _371
REMARK  155  A    between atoms: _371  and  _372
REMARK  156  A    between atoms: _375  and  _377
REMARK  157  A    between atoms: _377  and  _378
REMARK  158  A    between atoms: _377  and  _380
REMARK  159  A    between atoms: _383  and  _385
REMARK  160  A    between atoms: _385  and  _386
REMARK  161  A    between atoms: _385  and  _388
REMARK  162  A    between atoms: _388  and  _389
REMARK  163  A    between atoms: _389  and  _390
REMARK  164  A    between atoms: _390  and  _391
REMARK  165  A    between atoms: _391  and  _392
REMARK  166  A    between atoms: _396  and  _398
REMARK  167  A    between atoms: _398  and  _399
REMARK  168  A    between atoms: _398  and  _401
REMARK  169  A    between atoms: _401  and  _402
REMARK  170  A    between atoms: _402  and  _403
REMARK  171  A    between atoms: _405  and  _407
REMARK  172  A    between atoms: _407  and  _408
REMARK  173  A    between atoms: _407  and  _410
REMARK  174  A    between atoms: _410  and  _411
REMARK  175  A    between atoms: _414  and  _416
REMARK  176  A    between atoms: _416  and  _417
REMARK  177  A    between atoms: _419  and  _421
REMARK  178  A    between atoms: _421  and  _422
REMARK  179  A    between atoms: _424  and  _426
REMARK  180  A    between atoms: _426  and  _427
REMARK  181  A    between atoms: _426  and  _429
REMARK  182  A    between atoms: _429  and  _430
REMARK  183  A    between atoms: _433  and  _435
REMARK  184  A    between atoms: _435  and  _436
REMARK  185  A    between atoms: _438  and  _440
REMARK  186  A    between atoms: _440  and  _441
REMARK  187  A    between atoms: _443  and  _445
REMARK  188  A    between atoms: _445  and  _446
REMARK  189  A    between atoms: _445  and  _448
REMARK  190  A    between atoms: _448  and  _449
REMARK  191  A    between atoms: _455  and  _457
REMARK  192  A    between atoms: _457  and  _458
REMARK  193  A    between atoms: _457  and  _460
REMARK  194  A    between atoms: _460  and  _461
REMARK  195  A    between atoms: _464  and  _466
REMARK  196  A    between atoms: _466  and  _467
REMARK  197  A    between atoms: _466  and  _469
REMARK  198  A    between atoms: _472  and  _474
REMARK  199  A    between atoms: _474  and  _475
REMARK  200  A    between atoms: _474  and  _477
REMARK  201  A    between atoms: _477  and  _478
REMARK  202  A    between atoms: _481  and  _483
REMARK  203  A    between atoms: _483  and  _484
REMARK  204  A    between atoms: _483  and  _486
REMARK  205  A    between atoms: _486  and  _487
REMARK  206  A    between atoms: _491  and  _492
REMARK  207  A    between atoms: _497  and  _499
REMARK  208  A    between atoms: _499  and  _500
REMARK  209  A    between atoms: _499  and  _502
REMARK  210  A    between atoms: _505  and  _507
REMARK  211  A    between atoms: _507  and  _508
REMARK  212  A    between atoms: _507  and  _510
REMARK  213  A    between atoms: _510  and  _511
REMARK  214  A    between atoms: _516  and  _518
REMARK  215  A    between atoms: _518  and  _519
REMARK  216  A    between atoms: _518  and  _521
REMARK  217  A    between atoms: _521  and  _522
REMARK  218  A    between atoms: _525  and  _527
REMARK  219  A    between atoms: _527  and  _528
REMARK  220  A    between atoms: _527  and  _530
REMARK  221  A    between atoms: _530  and  _531
REMARK  222  A    between atoms: _534  and  _536
REMARK  223  A    between atoms: _536  and  _537
REMARK  224  A    between atoms: _539  and  _541
REMARK  225  A    between atoms: _541  and  _542
REMARK  226  A    between atoms: _541  and  _544
REMARK  227  A    between atoms: _544  and  _545
REMARK  228  A    between atoms: _545  and  _546
REMARK  229  A    between atoms: _546  and  _547
REMARK  230  A    between atoms: _556  and  _558
REMARK  231  A    between atoms: _558  and  _559
REMARK  232  A    between atoms: _558  and  _561
REMARK  233  A    between atoms: _561  and  _562
REMARK                            x       y       z     vdW  Elec       q    Type
REMARK                         _______ _______ _______ _____ _____    ______ ____
ROOT
ATOM      1  CA  VAL A   1      24.788  25.904   5.401  0.00  0.00    +0.133 C 
ENDROOT
BRANCH   1   2
ATOM      2  CB  VAL A   1      23.943  26.527   6.536  0.00  0.00    +0.023 C 
ATOM      3  CG2 VAL A   1      24.846  27.187   7.557  0.00  0.00    +0.002 C 
ATOM      4  CG1 VAL A   1      23.069  25.451   7.160  0.00  0.00    +0.002 C 
ENDBRANCH   1   2
BRANCH   1   5
ATOM      5  N   VAL A   1      25.689  24.901   5.944  0.00  0.00    -0.239 NA
ATOM      6  H   VAL A   1      26.514  25.221   6.490  0.00  0.00    +0.142 HD
ENDBRANCH   1   5
BRANCH   1   7
ATOM      7  C   VAL A   1      25.552  26.996   4.664  0.00  0.00    +0.224 C 
ATOM      8  O   VAL A   1      26.763  27.142   4.816  0.00  0.00    -0.287 OA
ENDBRANCH   1   7
TORSDOF 3
REMARK  Name = ../refined-set-2016/2z4o/2z4o_pocket.pdb
REMARK  233 active torsions:
REMARK  status: ('A' for Active; 'I' for Inactive)
REMARK    1  A    between atoms: _1  and  _3
REMARK    2  A    between atoms: _3  and  _4
REMARK    3  A    between atoms: _3  and  _6
REMARK    4  A    between atoms: _6  and  _7
REMARK    5  A    between atoms: _7  and  _8
REMARK    6  A    between atoms: _8  and  _9
REMARK    7  A    between atoms: _11  and  _15
REMARK    8  A    between atoms: _18  and  _20
REMARK    9  A    between atoms: _20  and  _21
REMARK   10  A    between atoms: _20  and  _23
REMARK   11  A    between atoms: _23  and  _24
REMARK   12  A    between atoms: _27  and  _29
REMARK   13  A    between atoms: _29  and  _30
REMARK   14  A    between atoms: _29  and  _32
REMARK   15  A    between atoms: _32  and  _33
REMARK   16  A    between atoms: _36  and  _38
REMARK   17  A    between atoms: _38  and  _39
REMARK   18  A    between atoms: _38  and  _41
REMARK   19  A    between atoms: _41  and  _42
REMARK   20  A    between atoms: _45  and  _47
REMARK   21  A    between atoms: _47  and  _48
REMARK   22  A    between atoms: _47  and  _50
REMARK   23  A    between atoms: _50  and  _51
REMARK   24  A    between atoms: _54  and  _56
REMARK   25  A    between atoms: _56  and  _57
REMARK   26  A    between atoms: _59  and  _61
REMARK   27  A    between atoms: _61  and  _62
REMARK   28  A    between atoms: _65  and  _67
REMARK   29  A    between atoms: _67  and  _68
REMARK   30  A    between atoms: _67  and  _70
REMARK   31  A    between atoms: _70  and  _71
REMARK   32  A    between atoms: _74  and  _76
REMARK   33  A    between atoms: _76  and  _77
REMARK   34  A    between atoms: _76  and  _79
REMARK   35  A    between atoms: _79  and  _80
REMARK   36  A    between atoms: _83  and  _85
REMARK   37  A    between atoms: _85  and  _86
REMARK   38  A    between atoms: _85  and  _88
REMARK   39  A    between atoms: _88  and  _89
REMARK   40  A    between atoms: _92  and  _94
REMARK   41  A    between atoms: _94  and  _95
REMARK   42  A    between atoms: _94  and  _97
REMARK   43  A    between atoms: _100  and  _102
REMARK   44  A    between atoms: _102  and  _103
REMARK   45  A    between atoms: _102  and  _105
REMARK   46  A    between atoms: _105  and  _106
REMARK   47  A    between atoms: _106  and  _107
REMARK   48  A    between atoms: _107  and  _108
REMARK   49  A    between atoms: _108  and  _109
REMARK   50  A    between atoms: _113  and  _115
REMARK   51  A    between atoms: _115  and  _116
REMARK   52  A    between atoms: _115  and  _118
REMARK   53  A    between atoms: _118  and  _119
REMARK   54  A    between atoms: _119  and  _120
REMARK   55  A    between atoms: _122  and  _124
REMARK   56  A    between atoms: _124  and  _125
REMARK   57  A    between atoms: _124  and  _127
REMARK   58  A    between atoms: _127  and  _128
REMARK   59  A    between atoms: _131  and  _133
REMARK   60  A    between atoms: _133  and  _134
REMARK   61  A    between atoms: _136  and  _138
REMARK   62  A    between atoms: _138  and  _139
REMARK   63  A    between atoms: _141  and  _143
REMARK   64  A    between atoms: _143  and  _144
REMARK   65  A    between atoms: _143  and  _146
REMARK   66  A    between atoms: _146  and  _147
REMARK   67  A    between atoms: _150  and  _152
REMARK   68  A    between atoms: _152  and  _153
REMARK   69  A    between atoms: _155  and  _157
REMARK   70  A    between atoms: _157  and  _158
REMARK   71  A    between atoms: _160  and  _162
REMARK   72  A    between atoms: _162  and  _163
REMARK   73  A    between atoms: _162  and  _165
REMARK   74  A    between atoms: _165  and  _166
REMARK   75  A    between atoms: _172  and  _174
REMARK   76  A    between atoms: _174  and  _175
REMARK   77  A    between atoms: _174  and  _177
REMARK   78  A    between atoms: _177  and  _178
REMARK   79  A    between atoms: _181  and  _183
REMARK   80  A    between atoms: _183  and  _184
REMARK   81  A    between atoms: _183  and  _186
REMARK   82  A    between atoms: _189  and  _191
REMARK   83  A    between atoms: _191  and  _192
REMARK   84  A    between atoms: _191  and  _194
REMARK   85  A    between atoms: _194  and  _195
REMARK   86  A    between atoms: _198  and  _200
REMARK   87  A    between atoms: _200  and  _201
REMARK   88  A    between atoms: _200  and  _203
REMARK   89  A    between atoms: _203  and  _204
REMARK   90  A    between atoms: _208  and  _209
REMARK   91  A    between atoms: _214  and  _216
REMARK   92  A    between atoms: _216  and  _217
REMARK   93  A    between atoms: _216  and  _219
REMARK   94  A    between atoms: _222  and  _224
REMARK   95  A    between atoms: _224  and  _225
REMARK   96  A    between atoms: _224  and  _227
REMARK   97  A    between atoms: _227  and  _228
REMARK   98  A    between atoms: _233  and  _235
REMARK   99  A    between atoms: _235  and  _236
REMARK  100  A    between atoms: _235  and  _238
REMARK  101  A    between atoms: _238  and  _239
REMARK  102  A    between atoms: _242  and  _244
REMARK  103  A    between atoms: _244  and  _245
REMARK  104  A    between atoms: _244  and  _247
REMARK  105  A    between atoms: _247  and  _248
REMARK  106  A    between atoms: _251  and  _253
REMARK  107  A    between atoms: _253  and  _254
REMARK  108  A    between atoms: _256  and  _258
REMARK  109  A    between atoms: _258  and  _259
REMARK  110  A    between atoms: _258  and  _261
REMARK  111  A    between atoms: _261  and  _262
REMARK  112  A    between atoms: _262  and  _263
REMARK  113  A    between atoms: _263  and  _264
REMARK  114  A    between atoms: _273  and  _275
REMARK  115  A    between atoms: _275  and  _276
REMARK  116  A    between atoms: _275  and  _278
REMARK  117  A    between atoms: _278  and  _279
REMARK  118  A    between atoms: _284  and  _286
REMARK  119  A    between atoms: _286  and  _287
REMARK  120  A    between atoms: _286  and  _289
REMARK  121  A    between atoms: _289  and  _290
REMARK  122  A    between atoms: _290  and  _291
REMARK  123  A    between atoms: _291  and  _292
REMARK  124  A    between atoms: _301  and  _303
REMARK  125  A    between atoms: _303  and  _304
REMARK  126  A    between atoms: _303  and  _306
REMARK  127  A    between atoms: _306  and  _307
REMARK  128  A    between atoms: _310  and  _312
REMARK  129  A    between atoms: _312  and  _313
REMARK  130  A    between atoms: _312  and  _315
REMARK  131  A    between atoms: _315  and  _316
REMARK  132  A    between atoms: _319  and  _321
REMARK  133  A    between atoms: _321  and  _322
REMARK  134  A    between atoms: _321  and  _324
REMARK  135  A    between atoms: _324  and  _325
REMARK  136  A    between atoms: _328  and  _330
REMARK  137  A    between atoms: _330  and  _331
REMARK  138  A    between atoms: _330  and  _333
REMARK  139  A    between atoms: _333  and  _334
REMARK  140  A    between atoms: _337  and  _339
REMARK  141  A    between atoms: _339  and  _340
REMARK  142  A    between atoms: _342  and  _344
REMARK  143  A    between atoms: _344  and  _345
REMARK  144  A    between atoms: _348  and  _350
REMARK  145  A    between atoms: _350  and  _351
REMARK  146  A    between atoms: _350  and  _353
REMARK  147  A    between atoms: _353  and  _354
REMARK  148  A    between atoms: _357  and  _359
REMARK  149  A    between atoms: _359  and  _360
REMARK  150  A    between atoms: _359  and  _362
REMARK  151  A    between atoms: _362  and  _363
REMARK  152  A    between atoms: _366  and  _368
REMARK  153  A    between atoms: _368  and  _369
REMARK  154  A    between atoms: _368  and  _371
REMARK  155  A    between atoms: _371  and  _372
REMARK  156  A    between atoms: _375  and  _377
REMARK  157  A    between atoms: _377  and  _378
REMARK  158  A    between atoms: _377  and  _380
REMARK  159  A    between atoms: _383  and  _385
REMARK  160  A    between atoms: _385  and  _386
REMARK  161  A    between atoms: _385  and  _388
REMARK  162  A    between atoms: _388  and  _389
REMARK  163  A    between atoms: _389  and  _390
REMARK  164  A    between atoms: _390  and  _391
REMARK  165  A    between atoms: _391  and  _392
REMARK  166  A    between atoms: _396  and  _398
REMARK  167  A    between atoms: _398  and  _399
REMARK  168  A    between atoms: _398  and  _401
REMARK  169  A    between atoms: _401  and  _402
REMARK  170  A    between atoms: _402  and  _403
REMARK  171  A    between atoms: _405  and  _407
REMARK  172  A    between atoms: _407  and  _408
REMARK  173  A    between atoms: _407  and  _410
REMARK  174  A    between atoms: _410  and  _411
REMARK  175  A    between atoms: _414  and  _416
REMARK  176  A    between atoms: _416  and  _417
REMARK  177  A    between atoms: _419  and  _421
REMARK  178  A    between atoms: _421  and  _422
REMARK  179  A    between atoms: _424  and  _426
REMARK  180  A    between atoms: _426  and  _427
REMARK  181  A    between atoms: _426  and  _429
REMARK  182  A    between atoms: _429  and  _430
REMARK  183  A    between atoms: _433  and  _435
REMARK  184  A    between atoms: _435  and  _436
REMARK  185  A    between atoms: _438  and  _440
REMARK  186  A    between atoms: _440  and  _441
REMARK  187  A    between atoms: _443  and  _445
REMARK  188  A    between atoms: _445  and  _446
REMARK  189  A    between atoms: _445  and  _448
REMARK  190  A    between atoms: _448  and  _449
REMARK  191  A    between atoms: _455  and  _457
REMARK  192  A    between atoms: _457  and  _458
REMARK  193  A    between atoms: _457  and  _460
REMARK  194  A    between atoms: _460  and  _461
REMARK  195  A    between atoms: _464  and  _466
REMARK  196  A    between atoms: _466  and  _467
REMARK  197  A    between atoms: _466  and  _469
REMARK  198  A    between atoms: _472  and  _474
REMARK  199  A    between atoms: _474  and  _475
REMARK  200  A    between atoms: _474  and  _477
REMARK  201  A    between atoms: _477  and  _478
REMARK  202  A    between atoms: _481  and  _483
REMARK  203  A    between atoms: _483  and  _484
REMARK  204  A    between atoms: _483  and  _486
REMARK  205  A    between atoms: _486  and  _487
REMARK  206  A    between atoms: _491  and  _492
REMARK  207  A    between atoms: _497  and  _499
REMARK  208  A    between atoms: _499  and  _500
REMARK  209  A    between atoms: _499  and  _502
REMARK  210  A    between atoms: _505  and  _507
REMARK  211  A    between atoms: _507  and  _508
REMARK  212  A    between atoms: _507  and  _510
REMARK  213  A    between atoms: _510  and  _511
REMARK  214  A    between atoms: _516  and  _518
REMARK  215  A    between atoms: _518  and  _519
REMARK  216  A    between atoms: _518  and  _521
REMARK  217  A    between atoms: _521  and  _522
REMARK  218  A    between atoms: _525  and  _527
REMARK  219  A    between atoms: _527  and  _528
REMARK  220  A    between atoms: _527  and  _530
REMARK  221  A    between atoms: _530  and  _531
REMARK  222  A    between atoms: _534  and  _536
REMARK  223  A    between atoms: _536  and  _537
REMARK  224  A    between atoms: _539  and  _541
REMARK  225  A    between atoms: _541  and  _542
REMARK  226  A    between atoms: _541  and  _544
REMARK  227  A    between atoms: _544  and  _545
REMARK  228  A    between atoms: _545  and  _546
REMARK  229  A    between atoms: _546  and  _547
REMARK  230  A    between atoms: _556  and  _558
REMARK  231  A    between atoms: _558  and  _559
REMARK  232  A    between atoms: _558  and  _561
REMARK  233  A    between atoms: _561  and  _562
REMARK                            x       y       z     vdW  Elec       q    Type
REMARK                         _______ _______ _______ _____ _____    ______ ____
ROOT
ATOM      1  CA  LEU A   1      21.350  30.426   6.721  0.00  0.00    +0.133 C 
ENDROOT
BRANCH   1   2
ATOM      2  N   LEU A   1      20.607  31.621   7.048  0.00  0.00    -0.239 NA
ATOM      3  H   LEU A   1      19.946  31.596   7.850  0.00  0.00    +0.142 HD
ENDBRANCH   1   2
BRANCH   1   4
ATOM      4  C   LEU A   1      20.495  29.518   5.859  0.00  0.00    +0.224 C 
ATOM      5  O   LEU A   1      19.344  29.335   6.200  0.00  0.00    -0.287 OA
ENDBRANCH   1   4
BRANCH   1   6
ATOM      6  CB  LEU A   1      21.759  29.733   8.002  0.00  0.00    +0.025 C 
BRANCH   6   7
ATOM      7  CG  LEU A   1      22.447  30.621   9.048  0.00  0.00    +0.002 C 
ATOM      8  CD2 LEU A   1      22.809  29.774  10.271  0.00  0.00    +0.000 C 
ATOM      9  CD1 LEU A   1      23.678  31.325   8.492  0.00  0.00    +0.000 C 
ENDBRANCH   6   7
ENDBRANCH   1   6
TORSDOF 4
REMARK  Name = ../refined-set-2016/2z4o/2z4o_pocket.pdb
REMARK  233 active torsions:
REMARK  status: ('A' for Active; 'I' for Inactive)
REMARK    1  A    between atoms: _1  and  _3
REMARK    2  A    between atoms: _3  and  _4
REMARK    3  A    between atoms: _3  and  _6
REMARK    4  A    between atoms: _6  and  _7
REMARK    5  A    between atoms: _7  and  _8
REMARK    6  A    between atoms: _8  and  _9
REMARK    7  A    between atoms: _11  and  _15
REMARK    8  A    between atoms: _18  and  _20
REMARK    9  A    between atoms: _20  and  _21
REMARK   10  A    between atoms: _20  and  _23
REMARK   11  A    between atoms: _23  and  _24
REMARK   12  A    between atoms: _27  and  _29
REMARK   13  A    between atoms: _29  and  _30
REMARK   14  A    between atoms: _29  and  _32
REMARK   15  A    between atoms: _32  and  _33
REMARK   16  A    between atoms: _36  and  _38
REMARK   17  A    between atoms: _38  and  _39
REMARK   18  A    between atoms: _38  and  _41
REMARK   19  A    between atoms: _41  and  _42
REMARK   20  A    between atoms: _45  and  _47
REMARK   21  A    between atoms: _47  and  _48
REMARK   22  A    between atoms: _47  and  _50
REMARK   23  A    between atoms: _50  and  _51
REMARK   24  A    between atoms: _54  and  _56
REMARK   25  A    between atoms: _56  and  _57
REMARK   26  A    between atoms: _59  and  _61
REMARK   27  A    between atoms: _61  and  _62
REMARK   28  A    between atoms: _65  and  _67
REMARK   29  A    between atoms: _67  and  _68
REMARK   30  A    between atoms: _67  and  _70
REMARK   31  A    between atoms: _70  and  _71
REMARK   32  A    between atoms: _74  and  _76
REMARK   33  A    between atoms: _76  and  _77
REMARK   34  A    between atoms: _76  and  _79
REMARK   35  A    between atoms: _79  and  _80
REMARK   36  A    between atoms: _83  and  _85
REMARK   37  A    between atoms: _85  and  _86
REMARK   38  A    between atoms: _85  and  _88
REMARK   39  A    between atoms: _88  and  _89
REMARK   40  A    between atoms: _92  and  _94
REMARK   41  A    between atoms: _94  and  _95
REMARK   42  A    between atoms: _94  and  _97
REMARK   43  A    between atoms: _100  and  _102
REMARK   44  A    between atoms: _102  and  _103
REMARK   45  A    between atoms: _102  and  _105
REMARK   46  A    between atoms: _105  and  _106
REMARK   47  A    between atoms: _106  and  _107
REMARK   48  A    between atoms: _107  and  _108
REMARK   49  A    between atoms: _108  and  _109
REMARK   50  A    between atoms: _113  and  _115
REMARK   51  A    between atoms: _115  and  _116
REMARK   52  A    between atoms: _115  and  _118
REMARK   53  A    between atoms: _118  and  _119
REMARK   54  A    between atoms: _119  and  _120
REMARK   55  A    between atoms: _122  and  _124
REMARK   56  A    between atoms: _124  and  _125
REMARK   57  A    between atoms: _124  and  _127
REMARK   58  A    between atoms: _127  and  _128
REMARK   59  A    between atoms: _131  and  _133
REMARK   60  A    between atoms: _133  and  _134
REMARK   61  A    between atoms: _136  and  _138
REMARK   62  A    between atoms: _138  and  _139
REMARK   63  A    between atoms: _141  and  _143
REMARK   64  A    between atoms: _143  and  _144
REMARK   65  A    between atoms: _143  and  _146
REMARK   66  A    between atoms: _146  and  _147
REMARK   67  A    between atoms: _150  and  _152
REMARK   68  A    between atoms: _152  and  _153
REMARK   69  A    between atoms: _155  and  _157
REMARK   70  A    between atoms: _157  and  _158
REMARK   71  A    between atoms: _160  and  _162
REMARK   72  A    between atoms: _162  and  _163
REMARK   73  A    between atoms: _162  and  _165
REMARK   74  A    between atoms: _165  and  _166
REMARK   75  A    between atoms: _172  and  _174
REMARK   76  A    between atoms: _174  and  _175
REMARK   77  A    between atoms: _174  and  _177
REMARK   78  A    between atoms: _177  and  _178
REMARK   79  A    between atoms: _181  and  _183
REMARK   80  A    between atoms: _183  and  _184
REMARK   81  A    between atoms: _183  and  _186
REMARK   82  A    between atoms: _189  and  _191
REMARK   83  A    between atoms: _191  and  _192
REMARK   84  A    between atoms: _191  and  _194
REMARK   85  A    between atoms: _194  and  _195
REMARK   86  A    between atoms: _198  and  _200
REMARK   87  A    between atoms: _200  and  _201
REMARK   88  A    between atoms: _200  and  _203
REMARK   89  A    between atoms: _203  and  _204
REMARK   90  A    between atoms: _208  and  _209
REMARK   91  A    between atoms: _214  and  _216
REMARK   92  A    between atoms: _216  and  _217
REMARK   93  A    between atoms: _216  and  _219
REMARK   94  A    between atoms: _222  and  _224
REMARK   95  A    between atoms: _224  and  _225
REMARK   96  A    between atoms: _224  and  _227
REMARK   97  A    between atoms: _227  and  _228
REMARK   98  A    between atoms: _233  and  _235
REMARK   99  A    between atoms: _235  and  _236
REMARK  100  A    between atoms: _235  and  _238
REMARK  101  A    between atoms: _238  and  _239
REMARK  102  A    between atoms: _242  and  _244
REMARK  103  A    between atoms: _244  and  _245
REMARK  104  A    between atoms: _244  and  _247
REMARK  105  A    between atoms: _247  and  _248
REMARK  106  A    between atoms: _251  and  _253
REMARK  107  A    between atoms: _253  and  _254
REMARK  108  A    between atoms: _256  and  _258
REMARK  109  A    between atoms: _258  and  _259
REMARK  110  A    between atoms: _258  and  _261
REMARK  111  A    between atoms: _261  and  _262
REMARK  112  A    between atoms: _262  and  _263
REMARK  113  A    between atoms: _263  and  _264
REMARK  114  A    between atoms: _273  and  _275
REMARK  115  A    between atoms: _275  and  _276
REMARK  116  A    between atoms: _275  and  _278
REMARK  117  A    between atoms: _278  and  _279
REMARK  118  A    between atoms: _284  and  _286
REMARK  119  A    between atoms: _286  and  _287
REMARK  120  A    between atoms: _286  and  _289
REMARK  121  A    between atoms: _289  and  _290
REMARK  122  A    between atoms: _290  and  _291
REMARK  123  A    between atoms: _291  and  _292
REMARK  124  A    between atoms: _301  and  _303
REMARK  125  A    between atoms: _303  and  _304
REMARK  126  A    between atoms: _303  and  _306
REMARK  127  A    between atoms: _306  and  _307
REMARK  128  A    between atoms: _310  and  _312
REMARK  129  A    between atoms: _312  and  _313
REMARK  130  A    between atoms: _312  and  _315
REMARK  131  A    between atoms: _315  and  _316
REMARK  132  A    between atoms: _319  and  _321
REMARK  133  A    between atoms: _321  and  _322
REMARK  134  A    between atoms: _321  and  _324
REMARK  135  A    between atoms: _324  and  _325
REMARK  136  A    between atoms: _328  and  _330
REMARK  137  A    between atoms: _330  and  _331
REMARK  138  A    between atoms: _330  and  _333
REMARK  139  A    between atoms: _333  and  _334
REMARK  140  A    between atoms: _337  and  _339
REMARK  141  A    between atoms: _339  and  _340
REMARK  142  A    between atoms: _342  and  _344
REMARK  143  A    between atoms: _344  and  _345
REMARK  144  A    between atoms: _348  and  _350
REMARK  145  A    between atoms: _350  and  _351
REMARK  146  A    between atoms: _350  and  _353
REMARK  147  A    between atoms: _353  and  _354
REMARK  148  A    between atoms: _357  and  _359
REMARK  149  A    between atoms: _359  and  _360
REMARK  150  A    between atoms: _359  and  _362
REMARK  151  A    between atoms: _362  and  _363
REMARK  152  A    between atoms: _366  and  _368
REMARK  153  A    between atoms: _368  and  _369
REMARK  154  A    between atoms: _368  and  _371
REMARK  155  A    between atoms: _371  and  _372
REMARK  156  A    between atoms: _375  and  _377
REMARK  157  A    between atoms: _377  and  _378
REMARK  158  A    between atoms: _377  and  _380
REMARK  159  A    between atoms: _383  and  _385
REMARK  160  A    between atoms: _385  and  _386
REMARK  161  A    between atoms: _385  and  _388
REMARK  162  A    between atoms: _388  and  _389
REMARK  163  A    between atoms: _389  and  _390
REMARK  164  A    between atoms: _390  and  _391
REMARK  165  A    between atoms: _391  and  _392
REMARK  166  A    between atoms: _396  and  _398
REMARK  167  A    between atoms: _398  and  _399
REMARK  168  A    between atoms: _398  and  _401
REMARK  169  A    between atoms: _401  and  _402
REMARK  170  A    between atoms: _402  and  _403
REMARK  171  A    between atoms: _405  and  _407
REMARK  172  A    between atoms: _407  and  _408
REMARK  173  A    between atoms: _407  and  _410
REMARK  174  A    between atoms: _410  and  _411
REMARK  175  A    between atoms: _414  and  _416
REMARK  176  A    between atoms: _416  and  _417
REMARK  177  A    between atoms: _419  and  _421
REMARK  178  A    between atoms: _421  and  _422
REMARK  179  A    between atoms: _424  and  _426
REMARK  180  A    between atoms: _426  and  _427
REMARK  181  A    between atoms: _426  and  _429
REMARK  182  A    between atoms: _429  and  _430
REMARK  183  A    between atoms: _433  and  _435
REMARK  184  A    between atoms: _435  and  _436
REMARK  185  A    between atoms: _438  and  _440
REMARK  186  A    between atoms: _440  and  _441
REMARK  187  A    between atoms: _443  and  _445
REMARK  188  A    between atoms: _445  and  _446
REMARK  189  A    between atoms: _445  and  _448
REMARK  190  A    between atoms: _448  and  _449
REMARK  191  A    between atoms: _455  and  _457
REMARK  192  A    between atoms: _457  and  _458
REMARK  193  A    between atoms: _457  and  _460
REMARK  194  A    between atoms: _460  and  _461
REMARK  195  A    between atoms: _464  and  _466
REMARK  196  A    between atoms: _466  and  _467
REMARK  197  A    between atoms: _466  and  _469
REMARK  198  A    between atoms: _472  and  _474
REMARK  199  A    between atoms: _474  and  _475
REMARK  200  A    between atoms: _474  and  _477
REMARK  201  A    between atoms: _477  and  _478
REMARK  202  A    between atoms: _481  and  _483
REMARK  203  A    between atoms: _483  and  _484
REMARK  204  A    between atoms: _483  and  _486
REMARK  205  A    between atoms: _486  and  _487
REMARK  206  A    between atoms: _491  and  _492
REMARK  207  A    between atoms: _497  and  _499
REMARK  208  A    between atoms: _499  and  _500
REMARK  209  A    between atoms: _499  and  _502
REMARK  210  A    between atoms: _505  and  _507
REMARK  211  A    between atoms: _507  and  _508
REMARK  212  A    between atoms: _507  and  _510
REMARK  213  A    between atoms: _510  and  _511
REMARK  214  A    between atoms: _516  and  _518
REMARK  215  A    between atoms: _518  and  _519
REMARK  216  A    between atoms: _518  and  _521
REMARK  217  A    between atoms: _521  and  _522
REMARK  218  A    between atoms: _525  and  _527
REMARK  219  A    between atoms: _527  and  _528
REMARK  220  A    between atoms: _527  and  _530
REMARK  221  A    between atoms: _530  and  _531
REMARK  222  A    between atoms: _534  and  _536
REMARK  223  A    between atoms: _536  and  _537
REMARK  224  A    between atoms: _539  and  _541
REMARK  225  A    between atoms: _541  and  _542
REMARK  226  A    between atoms: _541  and  _544
REMARK  227  A    between atoms: _544  and  _545
REMARK  228  A    between atoms: _545  and  _546
REMARK  229  A    between atoms: _546  and  _547
REMARK  230  A    between atoms: _556  and  _558
REMARK  231  A    between atoms: _558  and  _559
REMARK  232  A    between atoms: _558  and  _561
REMARK  233  A    between atoms: _561  and  _562
REMARK                            x       y       z     vdW  Elec       q    Type
REMARK                         _______ _______ _______ _____ _____    ______ ____
ROOT
ATOM      1  C   ILE A   5      13.658  29.664  11.437  0.00  0.00    +0.241 C 
ATOM      2  N   ILE A   6      12.786  30.428  12.065  0.00  0.00    -0.297 N 
ATOM      3  H   ILE A   6      11.876  30.017  12.355  0.00  0.00    +0.150 HD
ATOM      4  O   ILE A   5      14.675  30.078  10.877  0.00  0.00    -0.273 OA
ENDROOT
BRANCH   2   5
ATOM      5  CA  ILE A   6      13.052  31.824  12.366  0.00  0.00    +0.149 C 
BRANCH   5   6
ATOM      6  C   ILE A   6      13.693  31.883  13.750  0.00  0.00    +0.241 C 
ATOM      7  O   ILE A   6      13.026  31.568  14.742  0.00  0.00    -0.273 OA
ATOM      8  N   GLY A   7      14.971  32.276  13.777  0.00  0.00    -0.295 N 
ATOM      9  H   GLY A   7      15.431  32.562  12.889  0.00  0.00    +0.150 HD
BRANCH   8  10
ATOM     10  CA  GLY A   7      15.734  32.315  15.012  0.00  0.00    +0.176 C 
BRANCH  10  11
ATOM     11  C   GLY A   7      15.767  33.691  15.646  0.00  0.00    +0.243 C 
ATOM     12  N   ARG A   8      16.472  33.778  16.764  0.00  0.00    -0.297 N 
ATOM     13  H   ARG A   8      17.053  32.974  17.076  0.00  0.00    +0.150 HD
ATOM     14  O   GLY A   7      15.169  34.659  15.142  0.00  0.00    -0.273 OA
BRANCH  12  15
ATOM     15  CA  ARG A   8      16.433  35.006  17.561  0.00  0.00    +0.149 C 
BRANCH  15  16
ATOM     16  C   ARG A   8      16.934  36.210  16.787  0.00  0.00    +0.241 C 
ATOM     17  O   ARG A   8      16.441  37.311  17.034  0.00  0.00    -0.273 OA
ATOM     18  N   ASN A   9      17.873  36.026  15.873  0.00  0.00    -0.298 N 
ATOM     19  H   ASN A   9      18.240  35.071  15.685  0.00  0.00    +0.150 HD
BRANCH  18  20
ATOM     20  CA  ASN A   9      18.393  37.173  15.128  0.00  0.00    +0.146 C 
BRANCH  20  21
ATOM     21  C   ASN A   9      17.286  37.933  14.409  0.00  0.00    +0.227 C 
ATOM     22  O   ASN A   9      17.460  39.146  14.188  0.00  0.00    -0.286 OA
ENDBRANCH  20  21
BRANCH  20  23
ATOM     23  CB  ASN A   9      19.458  36.692  14.147  0.00  0.00    +0.112 C 
BRANCH  23  24
ATOM     24  CG  ASN A   9      18.923  35.968  12.943  0.00  0.00    +0.222 C 
ATOM     25  OD1 ASN A   9      18.209  34.989  13.082  0.00  0.00    -0.275 OA
ATOM     26  ND2 ASN A   9      19.263  36.442  11.751  0.00  0.00    -0.329 N 
ATOM     27 HD21 ASN A   9      19.875  37.280  11.680  0.00  0.00    +0.145 HD
ATOM     28 HD22 ASN A   9      18.918  35.975  10.888  0.00  0.00    +0.145 HD
ENDBRANCH  23  24
ENDBRANCH  20  23
ENDBRANCH  18  20
ENDBRANCH  15  16
BRANCH  15  29
ATOM     29  CB  ARG A   8      17.243  34.813  18.847  0.00  0.00    +0.033 C 
BRANCH  29  30
ATOM     30  CG  ARG A   8      16.580  33.812  19.790  0.00  0.00    +0.045 C 
BRANCH  30  31
ATOM     31  CD  ARG A   8      17.265  33.792  21.136  0.00  0.00    +0.174 C 
BRANCH  31  32
ATOM     32  NE  ARG A   8      18.646  33.371  20.981  0.00  0.00    -0.265 N 
ATOM     33  CZ  ARG A   8      19.734  34.133  20.929  0.00  0.00    +0.342 C 
ATOM     34  NH2 ARG A   8      19.688  35.468  21.022  0.00  0.00    -0.292 N 
ATOM     35 HH21 ARG A   8      18.774  35.950  21.140  0.00  0.00    +0.255 HD
ATOM     36 HH22 ARG A   8      20.566  36.023  20.976  0.00  0.00    +0.255 HD
ATOM     37  NH1 ARG A   8      20.927  33.562  20.780  0.00  0.00    -0.292 N 
ATOM     38 HH11 ARG A   8      21.784  34.150  20.738  0.00  0.00    +0.255 HD
ATOM     39 HH12 ARG A   8      21.003  32.527  20.705  0.00  0.00    +0.255 HD
ATOM     40  HE  ARG A   8      18.803  32.346  20.901  0.00  0.00    +0.259 HD
ENDBRANCH  31  32
ENDBRANCH  30  31
ENDBRANCH  29  30
ENDBRANCH  15  29
ENDBRANCH  12  15
ENDBRANCH  10  11
ENDBRANCH   8  10
ENDBRANCH   5   6
BRANCH   5  41
ATOM     41  CB  ILE A   6      11.783  32.687  12.307  0.00  0.00    +0.027 C 
ATOM     42  CG2 ILE A   6      12.097  34.131  12.623  0.00  0.00    +0.002 C 
BRANCH  41  43
ATOM     43  CG1 ILE A   6      11.049  32.601  10.976  0.00  0.00    +0.002 C 
ATOM     44  CD1 ILE A   6      11.967  32.848   9.776  0.00  0.00    +0.000 C 
ENDBRANCH  41  43
ENDBRANCH   5  41
ENDBRANCH   2   5
BRANCH   1  45
ATOM     45  CA  ILE A   5      13.326  28.189  11.446  0.00  0.00    +0.149 C 
BRANCH  45  48
ATOM     46  C   ASN A   4      12.226  26.999   9.625  0.00  0.00    +0.241 C 
ATOM     47  O   ASN A   4      11.146  26.886  10.214  0.00  0.00    -0.273 OA
ATOM     48  N   ILE A   5      13.263  27.620  10.117  0.00  0.00    -0.297 N 
ATOM     49  H   ILE A   5      14.103  27.712   9.511  0.00  0.00    +0.150 HD
BRANCH  46  50
ATOM     50  CA  ASN A   4      12.338  26.383   8.246  0.00  0.00    +0.158 C 
BRANCH  50  53
ATOM     51  C   VAL A   3      12.600  24.079   8.880  0.00  0.00    +0.241 C 
ATOM     52  O   VAL A   3      13.738  24.360   9.262  0.00  0.00    -0.273 OA
ATOM     53  N   ASN A   4      11.870  25.002   8.293  0.00  0.00    -0.297 N 
ATOM     54  H   ASN A   4      10.958  24.747   7.862  0.00  0.00    +0.150 HD
BRANCH  51  55
ATOM     55  CA  VAL A   3      12.105  22.677   9.120  0.00  0.00    +0.149 C 
BRANCH  55  57
ATOM     56  C   PRO A   2      13.008  20.565   8.297  0.00  0.00    +0.241 C 
ATOM     57  N   VAL A   3      13.173  21.730   8.876  0.00  0.00    -0.297 N 
ATOM     58  H   VAL A   3      14.133  21.991   9.180  0.00  0.00    +0.150 HD
ATOM     59  O   PRO A   2      11.914  20.191   7.866  0.00  0.00    -0.273 OA
BRANCH  56  65
ATOM     60  C   THR A   1      15.918  21.187   7.420  0.00  0.00    +0.244 C 
ATOM     61  N   PRO A   2      15.492  20.360   8.371  0.00  0.00    -0.272 N 
ATOM     62  CD  PRO A   2      16.150  20.019   9.641  0.00  0.00    +0.094 C 
ATOM     63  CG  PRO A   2      15.249  18.979  10.232  0.00  0.00    +0.024 C 
ATOM     64  CB  PRO A   2      14.166  18.621   9.299  0.00  0.00    +0.031 C 
ATOM     65  CA  PRO A   2      14.220  19.653   8.166  0.00  0.00    +0.152 C 
ATOM     66  O   THR A   1      15.256  21.340   6.380  0.00  0.00    -0.273 OA
BRANCH  60  67
ATOM     67  CA  THR A   1      17.242  21.896   7.677  0.00  0.00    +0.172 C 
BRANCH  67  68
ATOM     68  N   THR A   1      17.990  21.923   6.417  0.00  0.00    -0.236 NA
ATOM     69  H   THR A   1      17.960  22.776   5.822  0.00  0.00    +0.142 HD
ENDBRANCH  67  68
BRANCH  67  70
ATOM     70  CB  THR A   1      17.033  23.298   8.259  0.00  0.00    +0.135 C 
ATOM     71  CG2 THR A   1      16.280  24.199   7.297  0.00  0.00    +0.034 C 
BRANCH  70  72
ATOM     72  OG1 THR A   1      16.214  23.180   9.421  0.00  0.00    -0.383 OA
ATOM     73  HG1 THR A   1      15.343  22.782   9.170  0.00  0.00    +0.210 HD
ENDBRANCH  70  72
ENDBRANCH  67  70
ENDBRANCH  60  67
ENDBRANCH  56  65
ENDBRANCH  55  57
BRANCH  55  74
ATOM     74  CB  VAL A   3      11.564  22.598  10.571  0.00  0.00    +0.027 C 
ATOM     75  CG2 VAL A   3      11.156  21.181  10.949  0.00  0.00    +0.002 C 
ATOM     76  CG1 VAL A   3      10.387  23.547  10.757  0.00  0.00    +0.002 C 
ENDBRANCH  55  74
ENDBRANCH  51  55
ENDBRANCH  50  53
BRANCH  50  77
ATOM     77  CB  ASN A   4      11.503  27.174   7.266  0.00  0.00    +0.114 C 
BRANCH  77  78
ATOM     78  CG  ASN A   4      11.576  26.680   5.832  0.00  0.00    +0.222 C 
ATOM     79  OD1 ASN A   4      12.660  26.341   5.362  0.00  0.00    -0.275 OA
ATOM     80  ND2 ASN A   4      10.445  26.635   5.141  0.00  0.00    -0.329 N 
ATOM     81 HD21 ASN A   4       9.553  26.933   5.584  0.00  0.00    +0.145 HD
ATOM     82 HD22 ASN A   4      10.450  26.302   4.156  0.00  0.00    +0.145 HD
ENDBRANCH  77  78
ENDBRANCH  50  77
ENDBRANCH  46  50
ENDBRANCH  45  48
BRANCH  45  83
ATOM     83  CB  ILE A   5      14.418  27.460  12.256  0.00  0.00    +0.027 C 
ATOM     84  CG2 ILE A   5      14.850  28.263  13.471  0.00  0.00    +0.002 C 
BRANCH  83  85
ATOM     85  CG1 ILE A   5      13.947  26.029  12.555  0.00  0.00    +0.002 C 
ATOM     86  CD1 ILE A   5      15.158  25.100  12.489  0.00  0.00    +0.000 C 
ENDBRANCH  83  85
ENDBRANCH  45  83
ENDBRANCH   1  45
TORSDOF 32
REMARK  Name = ../refined-set-2016/2z4o/2z4o_pocket.pdb
REMARK  233 active torsions:
REMARK  status: ('A' for Active; 'I' for Inactive)
REMARK    1  A    between atoms: _1  and  _3
REMARK    2  A    between atoms: _3  and  _4
REMARK    3  A    between atoms: _3  and  _6
REMARK    4  A    between atoms: _6  and  _7
REMARK    5  A    between atoms: _7  and  _8
REMARK    6  A    between atoms: _8  and  _9
REMARK    7  A    between atoms: _11  and  _15
REMARK    8  A    between atoms: _18  and  _20
REMARK    9  A    between atoms: _20  and  _21
REMARK   10  A    between atoms: _20  and  _23
REMARK   11  A    between atoms: _23  and  _24
REMARK   12  A    between atoms: _27  and  _29
REMARK   13  A    between atoms: _29  and  _30
REMARK   14  A    between atoms: _29  and  _32
REMARK   15  A    between atoms: _32  and  _33
REMARK   16  A    between atoms: _36  and  _38
REMARK   17  A    between atoms: _38  and  _39
REMARK   18  A    between atoms: _38  and  _41
REMARK   19  A    between atoms: _41  and  _42
REMARK   20  A    between atoms: _45  and  _47
REMARK   21  A    between atoms: _47  and  _48
REMARK   22  A    between atoms: _47  and  _50
REMARK   23  A    between atoms: _50  and  _51
REMARK   24  A    between atoms: _54  and  _56
REMARK   25  A    between atoms: _56  and  _57
REMARK   26  A    between atoms: _59  and  _61
REMARK   27  A    between atoms: _61  and  _62
REMARK   28  A    between atoms: _65  and  _67
REMARK   29  A    between atoms: _67  and  _68
REMARK   30  A    between atoms: _67  and  _70
REMARK   31  A    between atoms: _70  and  _71
REMARK   32  A    between atoms: _74  and  _76
REMARK   33  A    between atoms: _76  and  _77
REMARK   34  A    between atoms: _76  and  _79
REMARK   35  A    between atoms: _79  and  _80
REMARK   36  A    between atoms: _83  and  _85
REMARK   37  A    between atoms: _85  and  _86
REMARK   38  A    between atoms: _85  and  _88
REMARK   39  A    between atoms: _88  and  _89
REMARK   40  A    between atoms: _92  and  _94
REMARK   41  A    between atoms: _94  and  _95
REMARK   42  A    between atoms: _94  and  _97
REMARK   43  A    between atoms: _100  and  _102
REMARK   44  A    between atoms: _102  and  _103
REMARK   45  A    between atoms: _102  and  _105
REMARK   46  A    between atoms: _105  and  _106
REMARK   47  A    between atoms: _106  and  _107
REMARK   48  A    between atoms: _107  and  _108
REMARK   49  A    between atoms: _108  and  _109
REMARK   50  A    between atoms: _113  and  _115
REMARK   51  A    between atoms: _115  and  _116
REMARK   52  A    between atoms: _115  and  _118
REMARK   53  A    between atoms: _118  and  _119
REMARK   54  A    between atoms: _119  and  _120
REMARK   55  A    between atoms: _122  and  _124
REMARK   56  A    between atoms: _124  and  _125
REMARK   57  A    between atoms: _124  and  _127
REMARK   58  A    between atoms: _127  and  _128
REMARK   59  A    between atoms: _131  and  _133
REMARK   60  A    between atoms: _133  and  _134
REMARK   61  A    between atoms: _136  and  _138
REMARK   62  A    between atoms: _138  and  _139
REMARK   63  A    between atoms: _141  and  _143
REMARK   64  A    between atoms: _143  and  _144
REMARK   65  A    between atoms: _143  and  _146
REMARK   66  A    between atoms: _146  and  _147
REMARK   67  A    between atoms: _150  and  _152
REMARK   68  A    between atoms: _152  and  _153
REMARK   69  A    between atoms: _155  and  _157
REMARK   70  A    between atoms: _157  and  _158
REMARK   71  A    between atoms: _160  and  _162
REMARK   72  A    between atoms: _162  and  _163
REMARK   73  A    between atoms: _162  and  _165
REMARK   74  A    between atoms: _165  and  _166
REMARK   75  A    between atoms: _172  and  _174
REMARK   76  A    between atoms: _174  and  _175
REMARK   77  A    between atoms: _174  and  _177
REMARK   78  A    between atoms: _177  and  _178
REMARK   79  A    between atoms: _181  and  _183
REMARK   80  A    between atoms: _183  and  _184
REMARK   81  A    between atoms: _183  and  _186
REMARK   82  A    between atoms: _189  and  _191
REMARK   83  A    between atoms: _191  and  _192
REMARK   84  A    between atoms: _191  and  _194
REMARK   85  A    between atoms: _194  and  _195
REMARK   86  A    between atoms: _198  and  _200
REMARK   87  A    between atoms: _200  and  _201
REMARK   88  A    between atoms: _200  and  _203
REMARK   89  A    between atoms: _203  and  _204
REMARK   90  A    between atoms: _208  and  _209
REMARK   91  A    between atoms: _214  and  _216
REMARK   92  A    between atoms: _216  and  _217
REMARK   93  A    between atoms: _216  and  _219
REMARK   94  A    between atoms: _222  and  _224
REMARK   95  A    between atoms: _224  and  _225
REMARK   96  A    between atoms: _224  and  _227
REMARK   97  A    between atoms: _227  and  _228
REMARK   98  A    between atoms: _233  and  _235
REMARK   99  A    between atoms: _235  and  _236
REMARK  100  A    between atoms: _235  and  _238
REMARK  101  A    between atoms: _238  and  _239
REMARK  102  A    between atoms: _242  and  _244
REMARK  103  A    between atoms: _244  and  _245
REMARK  104  A    between atoms: _244  and  _247
REMARK  105  A    between atoms: _247  and  _248
REMARK  106  A    between atoms: _251  and  _253
REMARK  107  A    between atoms: _253  and  _254
REMARK  108  A    between atoms: _256  and  _258
REMARK  109  A    between atoms: _258  and  _259
REMARK  110  A    between atoms: _258  and  _261
REMARK  111  A    between atoms: _261  and  _262
REMARK  112  A    between atoms: _262  and  _263
REMARK  113  A    between atoms: _263  and  _264
REMARK  114  A    between atoms: _273  and  _275
REMARK  115  A    between atoms: _275  and  _276
REMARK  116  A    between atoms: _275  and  _278
REMARK  117  A    between atoms: _278  and  _279
REMARK  118  A    between atoms: _284  and  _286
REMARK  119  A    between atoms: _286  and  _287
REMARK  120  A    between atoms: _286  and  _289
REMARK  121  A    between atoms: _289  and  _290
REMARK  122  A    between atoms: _290  and  _291
REMARK  123  A    between atoms: _291  and  _292
REMARK  124  A    between atoms: _301  and  _303
REMARK  125  A    between atoms: _303  and  _304
REMARK  126  A    between atoms: _303  and  _306
REMARK  127  A    between atoms: _306  and  _307
REMARK  128  A    between atoms: _310  and  _312
REMARK  129  A    between atoms: _312  and  _313
REMARK  130  A    between atoms: _312  and  _315
REMARK  131  A    between atoms: _315  and  _316
REMARK  132  A    between atoms: _319  and  _321
REMARK  133  A    between atoms: _321  and  _322
REMARK  134  A    between atoms: _321  and  _324
REMARK  135  A    between atoms: _324  and  _325
REMARK  136  A    between atoms: _328  and  _330
REMARK  137  A    between atoms: _330  and  _331
REMARK  138  A    between atoms: _330  and  _333
REMARK  139  A    between atoms: _333  and  _334
REMARK  140  A    between atoms: _337  and  _339
REMARK  141  A    between atoms: _339  and  _340
REMARK  142  A    between atoms: _342  and  _344
REMARK  143  A    between atoms: _344  and  _345
REMARK  144  A    between atoms: _348  and  _350
REMARK  145  A    between atoms: _350  and  _351
REMARK  146  A    between atoms: _350  and  _353
REMARK  147  A    between atoms: _353  and  _354
REMARK  148  A    between atoms: _357  and  _359
REMARK  149  A    between atoms: _359  and  _360
REMARK  150  A    between atoms: _359  and  _362
REMARK  151  A    between atoms: _362  and  _363
REMARK  152  A    between atoms: _366  and  _368
REMARK  153  A    between atoms: _368  and  _369
REMARK  154  A    between atoms: _368  and  _371
REMARK  155  A    between atoms: _371  and  _372
REMARK  156  A    between atoms: _375  and  _377
REMARK  157  A    between atoms: _377  and  _378
REMARK  158  A    between atoms: _377  and  _380
REMARK  159  A    between atoms: _383  and  _385
REMARK  160  A    between atoms: _385  and  _386
REMARK  161  A    between atoms: _385  and  _388
REMARK  162  A    between atoms: _388  and  _389
REMARK  163  A    between atoms: _389  and  _390
REMARK  164  A    between atoms: _390  and  _391
REMARK  165  A    between atoms: _391  and  _392
REMARK  166  A    between atoms: _396  and  _398
REMARK  167  A    between atoms: _398  and  _399
REMARK  168  A    between atoms: _398  and  _401
REMARK  169  A    between atoms: _401  and  _402
REMARK  170  A    between atoms: _402  and  _403
REMARK  171  A    between atoms: _405  and  _407
REMARK  172  A    between atoms: _407  and  _408
REMARK  173  A    between atoms: _407  and  _410
REMARK  174  A    between atoms: _410  and  _411
REMARK  175  A    between atoms: _414  and  _416
REMARK  176  A    between atoms: _416  and  _417
REMARK  177  A    between atoms: _419  and  _421
REMARK  178  A    between atoms: _421  and  _422
REMARK  179  A    between atoms: _424  and  _426
REMARK  180  A    between atoms: _426  and  _427
REMARK  181  A    between atoms: _426  and  _429
REMARK  182  A    between atoms: _429  and  _430
REMARK  183  A    between atoms: _433  and  _435
REMARK  184  A    between atoms: _435  and  _436
REMARK  185  A    between atoms: _438  and  _440
REMARK  186  A    between atoms: _440  and  _441
REMARK  187  A    between atoms: _443  and  _445
REMARK  188  A    between atoms: _445  and  _446
REMARK  189  A    between atoms: _445  and  _448
REMARK  190  A    between atoms: _448  and  _449
REMARK  191  A    between atoms: _455  and  _457
REMARK  192  A    between atoms: _457  and  _458
REMARK  193  A    between atoms: _457  and  _460
REMARK  194  A    between atoms: _460  and  _461
REMARK  195  A    between atoms: _464  and  _466
REMARK  196  A    between atoms: _466  and  _467
REMARK  197  A    between atoms: _466  and  _469
REMARK  198  A    between atoms: _472  and  _474
REMARK  199  A    between atoms: _474  and  _475
REMARK  200  A    between atoms: _474  and  _477
REMARK  201  A    between atoms: _477  and  _478
REMARK  202  A    between atoms: _481  and  _483
REMARK  203  A    between atoms: _483  and  _484
REMARK  204  A    between atoms: _483  and  _486
REMARK  205  A    between atoms: _486  and  _487
REMARK  206  A    between atoms: _491  and  _492
REMARK  207  A    between atoms: _497  and  _499
REMARK  208  A    between atoms: _499  and  _500
REMARK  209  A    between atoms: _499  and  _502
REMARK  210  A    between atoms: _505  and  _507
REMARK  211  A    between atoms: _507  and  _508
REMARK  212  A    between atoms: _507  and  _510
REMARK  213  A    between atoms: _510  and  _511
REMARK  214  A    between atoms: _516  and  _518
REMARK  215  A    between atoms: _518  and  _519
REMARK  216  A    between atoms: _518  and  _521
REMARK  217  A    between atoms: _521  and  _522
REMARK  218  A    between atoms: _525  and  _527
REMARK  219  A    between atoms: _527  and  _528
REMARK  220  A    between atoms: _527  and  _530
REMARK  221  A    between atoms: _530  and  _531
REMARK  222  A    between atoms: _534  and  _536
REMARK  223  A    between atoms: _536  and  _537
REMARK  224  A    between atoms: _539  and  _541
REMARK  225  A    between atoms: _541  and  _542
REMARK  226  A    between atoms: _541  and  _544
REMARK  227  A    between atoms: _544  and  _545
REMARK  228  A    between atoms: _545  and  _546
REMARK  229  A    between atoms: _546  and  _547
REMARK  230  A    between atoms: _556  and  _558
REMARK  231  A    between atoms: _558  and  _559
REMARK  232  A    between atoms: _558  and  _561
REMARK  233  A    between atoms: _561  and  _562
REMARK                            x       y       z     vdW  Elec       q    Type
REMARK                         _______ _______ _______ _____ _____    ______ ____
ROOT
ATOM      1  NE  ARG A   1      22.382  29.651  22.587  0.00  0.00    -0.265 N 
ATOM      2  CZ  ARG A   1      22.608  28.358  22.350  0.00  0.00    +0.342 C 
ATOM      3  NH2 ARG A   1      22.245  27.419  23.214  0.00  0.00    -0.292 N 
ATOM      4 HH21 ARG A   1      21.772  27.684  24.101  0.00  0.00    +0.255 HD
ATOM      5 HH22 ARG A   1      22.434  26.418  23.004  0.00  0.00    +0.255 HD
ATOM      6  NH1 ARG A   1      23.206  27.964  21.232  0.00  0.00    -0.292 N 
ATOM      7 HH11 ARG A   1      23.375  26.952  21.062  0.00  0.00    +0.255 HD
ATOM      8 HH12 ARG A   1      23.505  28.667  20.527  0.00  0.00    +0.255 HD
ATOM      9  HE  ARG A   1      22.691  30.329  21.862  0.00  0.00    +0.259 HD
ENDROOT
BRANCH   1  10
ATOM     10  CD  ARG A   1      21.747  30.186  23.760  0.00  0.00    +0.174 C 
BRANCH  10  11
ATOM     11  CG  ARG A   1      21.158  31.577  23.617  0.00  0.00    +0.045 C 
BRANCH  11  12
ATOM     12  CB  ARG A   1      20.422  31.944  24.911  0.00  0.00    +0.029 C 
BRANCH  12  13
ATOM     13  CA  ARG A   1      19.416  33.080  24.712  0.00  0.00    +0.133 C 
BRANCH  13  14
ATOM     14  N   ARG A   1      20.147  34.329  24.530  0.00  0.00    -0.239 NA
ATOM     15  H   ARG A   1      21.187  34.350  24.519  0.00  0.00    +0.142 HD
ENDBRANCH  13  14
BRANCH  13  16
ATOM     16  C   ARG A   1      18.461  33.127  25.889  0.00  0.00    +0.224 C 
ATOM     17  O   ARG A   1      18.909  33.592  26.946  0.00  0.00    -0.287 OA
ENDBRANCH  13  16
ENDBRANCH  12  13
ENDBRANCH  11  12
ENDBRANCH  10  11
ENDBRANCH   1  10
TORSDOF 6
REMARK  Name = ../refined-set-2016/2z4o/2z4o_pocket.pdb
REMARK  233 active torsions:
REMARK  status: ('A' for Active; 'I' for Inactive)
REMARK    1  A    between atoms: _1  and  _3
REMARK    2  A    between atoms: _3  and  _4
REMARK    3  A    between atoms: _3  and  _6
REMARK    4  A    between atoms: _6  and  _7
REMARK    5  A    between atoms: _7  and  _8
REMARK    6  A    between atoms: _8  and  _9
REMARK    7  A    between atoms: _11  and  _15
REMARK    8  A    between atoms: _18  and  _20
REMARK    9  A    between atoms: _20  and  _21
REMARK   10  A    between atoms: _20  and  _23
REMARK   11  A    between atoms: _23  and  _24
REMARK   12  A    between atoms: _27  and  _29
REMARK   13  A    between atoms: _29  and  _30
REMARK   14  A    between atoms: _29  and  _32
REMARK   15  A    between atoms: _32  and  _33
REMARK   16  A    between atoms: _36  and  _38
REMARK   17  A    between atoms: _38  and  _39
REMARK   18  A    between atoms: _38  and  _41
REMARK   19  A    between atoms: _41  and  _42
REMARK   20  A    between atoms: _45  and  _47
REMARK   21  A    between atoms: _47  and  _48
REMARK   22  A    between atoms: _47  and  _50
REMARK   23  A    between atoms: _50  and  _51
REMARK   24  A    between atoms: _54  and  _56
REMARK   25  A    between atoms: _56  and  _57
REMARK   26  A    between atoms: _59  and  _61
REMARK   27  A    between atoms: _61  and  _62
REMARK   28  A    between atoms: _65  and  _67
REMARK   29  A    between atoms: _67  and  _68
REMARK   30  A    between atoms: _67  and  _70
REMARK   31  A    between atoms: _70  and  _71
REMARK   32  A    between atoms: _74  and  _76
REMARK   33  A    between atoms: _76  and  _77
REMARK   34  A    between atoms: _76  and  _79
REMARK   35  A    between atoms: _79  and  _80
REMARK   36  A    between atoms: _83  and  _85
REMARK   37  A    between atoms: _85  and  _86
REMARK   38  A    between atoms: _85  and  _88
REMARK   39  A    between atoms: _88  and  _89
REMARK   40  A    between atoms: _92  and  _94
REMARK   41  A    between atoms: _94  and  _95
REMARK   42  A    between atoms: _94  and  _97
REMARK   43  A    between atoms: _100  and  _102
REMARK   44  A    between atoms: _102  and  _103
REMARK   45  A    between atoms: _102  and  _105
REMARK   46  A    between atoms: _105  and  _106
REMARK   47  A    between atoms: _106  and  _107
REMARK   48  A    between atoms: _107  and  _108
REMARK   49  A    between atoms: _108  and  _109
REMARK   50  A    between atoms: _113  and  _115
REMARK   51  A    between atoms: _115  and  _116
REMARK   52  A    between atoms: _115  and  _118
REMARK   53  A    between atoms: _118  and  _119
REMARK   54  A    between atoms: _119  and  _120
REMARK   55  A    between atoms: _122  and  _124
REMARK   56  A    between atoms: _124  and  _125
REMARK   57  A    between atoms: _124  and  _127
REMARK   58  A    between atoms: _127  and  _128
REMARK   59  A    between atoms: _131  and  _133
REMARK   60  A    between atoms: _133  and  _134
REMARK   61  A    between atoms: _136  and  _138
REMARK   62  A    between atoms: _138  and  _139
REMARK   63  A    between atoms: _141  and  _143
REMARK   64  A    between atoms: _143  and  _144
REMARK   65  A    between atoms: _143  and  _146
REMARK   66  A    between atoms: _146  and  _147
REMARK   67  A    between atoms: _150  and  _152
REMARK   68  A    between atoms: _152  and  _153
REMARK   69  A    between atoms: _155  and  _157
REMARK   70  A    between atoms: _157  and  _158
REMARK   71  A    between atoms: _160  and  _162
REMARK   72  A    between atoms: _162  and  _163
REMARK   73  A    between atoms: _162  and  _165
REMARK   74  A    between atoms: _165  and  _166
REMARK   75  A    between atoms: _172  and  _174
REMARK   76  A    between atoms: _174  and  _175
REMARK   77  A    between atoms: _174  and  _177
REMARK   78  A    between atoms: _177  and  _178
REMARK   79  A    between atoms: _181  and  _183
REMARK   80  A    between atoms: _183  and  _184
REMARK   81  A    between atoms: _183  and  _186
REMARK   82  A    between atoms: _189  and  _191
REMARK   83  A    between atoms: _191  and  _192
REMARK   84  A    between atoms: _191  and  _194
REMARK   85  A    between atoms: _194  and  _195
REMARK   86  A    between atoms: _198  and  _200
REMARK   87  A    between atoms: _200  and  _201
REMARK   88  A    between atoms: _200  and  _203
REMARK   89  A    between atoms: _203  and  _204
REMARK   90  A    between atoms: _208  and  _209
REMARK   91  A    between atoms: _214  and  _216
REMARK   92  A    between atoms: _216  and  _217
REMARK   93  A    between atoms: _216  and  _219
REMARK   94  A    between atoms: _222  and  _224
REMARK   95  A    between atoms: _224  and  _225
REMARK   96  A    between atoms: _224  and  _227
REMARK   97  A    between atoms: _227  and  _228
REMARK   98  A    between atoms: _233  and  _235
REMARK   99  A    between atoms: _235  and  _236
REMARK  100  A    between atoms: _235  and  _238
REMARK  101  A    between atoms: _238  and  _239
REMARK  102  A    between atoms: _242  and  _244
REMARK  103  A    between atoms: _244  and  _245
REMARK  104  A    between atoms: _244  and  _247
REMARK  105  A    between atoms: _247  and  _248
REMARK  106  A    between atoms: _251  and  _253
REMARK  107  A    between atoms: _253  and  _254
REMARK  108  A    between atoms: _256  and  _258
REMARK  109  A    between atoms: _258  and  _259
REMARK  110  A    between atoms: _258  and  _261
REMARK  111  A    between atoms: _261  and  _262
REMARK  112  A    between atoms: _262  and  _263
REMARK  113  A    between atoms: _263  and  _264
REMARK  114  A    between atoms: _273  and  _275
REMARK  115  A    between atoms: _275  and  _276
REMARK  116  A    between atoms: _275  and  _278
REMARK  117  A    between atoms: _278  and  _279
REMARK  118  A    between atoms: _284  and  _286
REMARK  119  A    between atoms: _286  and  _287
REMARK  120  A    between atoms: _286  and  _289
REMARK  121  A    between atoms: _289  and  _290
REMARK  122  A    between atoms: _290  and  _291
REMARK  123  A    between atoms: _291  and  _292
REMARK  124  A    between atoms: _301  and  _303
REMARK  125  A    between atoms: _303  and  _304
REMARK  126  A    between atoms: _303  and  _306
REMARK  127  A    between atoms: _306  and  _307
REMARK  128  A    between atoms: _310  and  _312
REMARK  129  A    between atoms: _312  and  _313
REMARK  130  A    between atoms: _312  and  _315
REMARK  131  A    between atoms: _315  and  _316
REMARK  132  A    between atoms: _319  and  _321
REMARK  133  A    between atoms: _321  and  _322
REMARK  134  A    between atoms: _321  and  _324
REMARK  135  A    between atoms: _324  and  _325
REMARK  136  A    between atoms: _328  and  _330
REMARK  137  A    between atoms: _330  and  _331
REMARK  138  A    between atoms: _330  and  _333
REMARK  139  A    between atoms: _333  and  _334
REMARK  140  A    between atoms: _337  and  _339
REMARK  141  A    between atoms: _339  and  _340
REMARK  142  A    between atoms: _342  and  _344
REMARK  143  A    between atoms: _344  and  _345
REMARK  144  A    between atoms: _348  and  _350
REMARK  145  A    between atoms: _350  and  _351
REMARK  146  A    between atoms: _350  and  _353
REMARK  147  A    between atoms: _353  and  _354
REMARK  148  A    between atoms: _357  and  _359
REMARK  149  A    between atoms: _359  and  _360
REMARK  150  A    between atoms: _359  and  _362
REMARK  151  A    between atoms: _362  and  _363
REMARK  152  A    between atoms: _366  and  _368
REMARK  153  A    between atoms: _368  and  _369
REMARK  154  A    between atoms: _368  and  _371
REMARK  155  A    between atoms: _371  and  _372
REMARK  156  A    between atoms: _375  and  _377
REMARK  157  A    between atoms: _377  and  _378
REMARK  158  A    between atoms: _377  and  _380
REMARK  159  A    between atoms: _383  and  _385
REMARK  160  A    between atoms: _385  and  _386
REMARK  161  A    between atoms: _385  and  _388
REMARK  162  A    between atoms: _388  and  _389
REMARK  163  A    between atoms: _389  and  _390
REMARK  164  A    between atoms: _390  and  _391
REMARK  165  A    between atoms: _391  and  _392
REMARK  166  A    between atoms: _396  and  _398
REMARK  167  A    between atoms: _398  and  _399
REMARK  168  A    between atoms: _398  and  _401
REMARK  169  A    between atoms: _401  and  _402
REMARK  170  A    between atoms: _402  and  _403
REMARK  171  A    between atoms: _405  and  _407
REMARK  172  A    between atoms: _407  and  _408
REMARK  173  A    between atoms: _407  and  _410
REMARK  174  A    between atoms: _410  and  _411
REMARK  175  A    between atoms: _414  and  _416
REMARK  176  A    between atoms: _416  and  _417
REMARK  177  A    between atoms: _419  and  _421
REMARK  178  A    between atoms: _421  and  _422
REMARK  179  A    between atoms: _424  and  _426
REMARK  180  A    between atoms: _426  and  _427
REMARK  181  A    between atoms: _426  and  _429
REMARK  182  A    between atoms: _429  and  _430
REMARK  183  A    between atoms: _433  and  _435
REMARK  184  A    between atoms: _435  and  _436
REMARK  185  A    between atoms: _438  and  _440
REMARK  186  A    between atoms: _440  and  _441
REMARK  187  A    between atoms: _443  and  _445
REMARK  188  A    between atoms: _445  and  _446
REMARK  189  A    between atoms: _445  and  _448
REMARK  190  A    between atoms: _448  and  _449
REMARK  191  A    between atoms: _455  and  _457
REMARK  192  A    between atoms: _457  and  _458
REMARK  193  A    between atoms: _457  and  _460
REMARK  194  A    between atoms: _460  and  _461
REMARK  195  A    between atoms: _464  and  _466
REMARK  196  A    between atoms: _466  and  _467
REMARK  197  A    between atoms: _466  and  _469
REMARK  198  A    between atoms: _472  and  _474
REMARK  199  A    between atoms: _474  and  _475
REMARK  200  A    between atoms: _474  and  _477
REMARK  201  A    between atoms: _477  and  _478
REMARK  202  A    between atoms: _481  and  _483
REMARK  203  A    between atoms: _483  and  _484
REMARK  204  A    between atoms: _483  and  _486
REMARK  205  A    between atoms: _486  and  _487
REMARK  206  A    between atoms: _491  and  _492
REMARK  207  A    between atoms: _497  and  _499
REMARK  208  A    between atoms: _499  and  _500
REMARK  209  A    between atoms: _499  and  _502
REMARK  210  A    between atoms: _505  and  _507
REMARK  211  A    between atoms: _507  and  _508
REMARK  212  A    between atoms: _507  and  _510
REMARK  213  A    between atoms: _510  and  _511
REMARK  214  A    between atoms: _516  and  _518
REMARK  215  A    between atoms: _518  and  _519
REMARK  216  A    between atoms: _518  and  _521
REMARK  217  A    between atoms: _521  and  _522
REMARK  218  A    between atoms: _525  and  _527
REMARK  219  A    between atoms: _527  and  _528
REMARK  220  A    between atoms: _527  and  _530
REMARK  221  A    between atoms: _530  and  _531
REMARK  222  A    between atoms: _534  and  _536
REMARK  223  A    between atoms: _536  and  _537
REMARK  224  A    between atoms: _539  and  _541
REMARK  225  A    between atoms: _541  and  _542
REMARK  226  A    between atoms: _541  and  _544
REMARK  227  A    between atoms: _544  and  _545
REMARK  228  A    between atoms: _545  and  _546
REMARK  229  A    between atoms: _546  and  _547
REMARK  230  A    between atoms: _556  and  _558
REMARK  231  A    between atoms: _558  and  _559
REMARK  232  A    between atoms: _558  and  _561
REMARK  233  A    between atoms: _561  and  _562
REMARK                            x       y       z     vdW  Elec       q    Type
REMARK                         _______ _______ _______ _____ _____    ______ ____
ROOT
ATOM      1  C   GLY A   5      10.968  23.836  18.729  0.00  0.00    +0.243 C 
ATOM      2  N   ALA A   6      10.932  23.491  20.002  0.00  0.00    -0.297 N 
ATOM      3  H   ALA A   6      10.861  24.259  20.700  0.00  0.00    +0.150 HD
ATOM      4  O   GLY A   5      11.138  22.977  17.849  0.00  0.00    -0.273 OA
ENDROOT
BRANCH   2   5
ATOM      5  CA  ALA A   6      10.983  22.138  20.512  0.00  0.00    +0.149 C 
ATOM      6  CB  ALA A   6      11.930  22.101  21.701  0.00  0.00    +0.031 C 
BRANCH   5   7
ATOM      7  C   ALA A   6       9.610  21.631  20.928  0.00  0.00    +0.241 C 
ATOM      8  O   ALA A   6       8.987  22.251  21.774  0.00  0.00    -0.273 OA
ATOM      9  N   ASP A   7       9.137  20.520  20.348  0.00  0.00    -0.297 N 
ATOM     10  H   ASP A   7       9.684  20.054  19.596  0.00  0.00    +0.150 HD
BRANCH   9  11
ATOM     11  CA  ASP A   7       7.872  19.970  20.764  0.00  0.00    +0.160 C 
BRANCH  11  12
ATOM     12  C   ASP A   7       7.981  19.458  22.199  0.00  0.00    +0.241 C 
ATOM     13  O   ASP A   7       7.050  19.572  22.958  0.00  0.00    -0.273 OA
ATOM     14  N   ASP A   8       9.134  18.911  22.490  0.00  0.00    -0.297 N 
ATOM     15  H   ASP A   8       9.893  19.020  21.788  0.00  0.00    +0.150 HD
BRANCH  14  16
ATOM     16  CA  ASP A   8       9.459  18.172  23.687  0.00  0.00    +0.160 C 
BRANCH  16  17
ATOM     17  C   ASP A   8      10.622  18.786  24.447  0.00  0.00    +0.241 C 
ATOM     18  N   THR A   9      10.612  18.493  25.724  0.00  0.00    -0.295 N 
ATOM     19  H   THR A   9       9.796  17.966  26.095  0.00  0.00    +0.150 HD
ATOM     20  O   ASP A   8      11.483  19.477  23.920  0.00  0.00    -0.273 OA
BRANCH  18  21
ATOM     21  CA  THR A   9      11.671  18.858  26.659  0.00  0.00    +0.176 C 
BRANCH  21  22
ATOM     22  C   THR A   9      12.742  17.789  26.687  0.00  0.00    +0.243 C 
ATOM     23  O   THR A   9      12.445  16.601  26.901  0.00  0.00    -0.273 OA
ATOM     24  N   VAL A  10      13.971  18.212  26.467  0.00  0.00    -0.298 N 
ATOM     25  H   VAL A  10      14.153  19.232  26.375  0.00  0.00    +0.150 HD
BRANCH  24  26
ATOM     26  CA  VAL A  10      15.076  17.275  26.351  0.00  0.00    +0.137 C 
BRANCH  26  27
ATOM     27  CB  VAL A  10      15.638  17.116  24.924  0.00  0.00    +0.026 C 
ATOM     28  CG2 VAL A  10      16.545  15.891  24.922  0.00  0.00    +0.002 C 
ATOM     29  CG1 VAL A  10      14.567  16.987  23.871  0.00  0.00    +0.002 C 
ENDBRANCH  26  27
BRANCH  26  30
ATOM     30  C   VAL A  10      16.222  17.748  27.257  0.00  0.00    +0.227 C 
ATOM     31  O   VAL A  10      16.645  18.881  27.118  0.00  0.00    -0.286 OA
ENDBRANCH  26  30
ENDBRANCH  24  26
ENDBRANCH  21  22
BRANCH  21  32
ATOM     32  CB  THR A   9      11.049  19.055  28.040  0.00  0.00    +0.137 C 
ATOM     33  CG2 THR A   9      12.102  19.359  29.115  0.00  0.00    +0.034 C 
BRANCH  32  34
ATOM     34  OG1 THR A   9      10.156  20.188  27.950  0.00  0.00    -0.382 OA
ATOM     35  HG1 THR A   9       9.455  20.002  27.276  0.00  0.00    +0.210 HD
ENDBRANCH  32  34
ENDBRANCH  21  32
ENDBRANCH  18  21
ENDBRANCH  16  17
BRANCH  16  36
ATOM     36  CB  ASP A   8       9.868  16.755  23.336  0.00  0.00    +0.143 C 
BRANCH  36  37
ATOM     37  CG  ASP A   8       8.871  16.054  22.446  0.00  0.00    +0.367 C 
ATOM     38  OD2 ASP A   8       7.657  16.130  22.712  0.00  0.00    -0.246 OA
ATOM     39  OD1 ASP A   8       9.293  15.414  21.468  0.00  0.00    -0.246 OA
ENDBRANCH  36  37
ENDBRANCH  16  36
ENDBRANCH  14  16
ENDBRANCH  11  12
BRANCH  11  40
ATOM     40  CB  ASP A   7       7.422  18.822  19.879  0.00  0.00    +0.143 C 
BRANCH  40  41
ATOM     41  CG  ASP A   7       7.230  19.165  18.420  0.00  0.00    +0.367 C 
ATOM     42  OD2 ASP A   7       7.074  20.324  18.024  0.00  0.00    -0.246 OA
ATOM     43  OD1 ASP A   7       7.250  18.149  17.668  0.00  0.00    -0.246 OA
ENDBRANCH  40  41
ENDBRANCH  11  40
ENDBRANCH   9  11
ENDBRANCH   5   7
ENDBRANCH   2   5
BRANCH   1  44
ATOM     44  CA  GLY A   5      10.804  25.288  18.357  0.00  0.00    +0.176 C 
BRANCH  44  47
ATOM     45  C   THR A   4       9.482  26.453  20.011  0.00  0.00    +0.243 C 
ATOM     46  O   THR A   4       8.442  26.002  19.540  0.00  0.00    -0.273 OA
ATOM     47  N   GLY A   5      10.661  26.193  19.489  0.00  0.00    -0.295 N 
ATOM     48  H   GLY A   5      11.508  26.642  19.893  0.00  0.00    +0.150 HD
BRANCH  45  49
ATOM     49  CA  THR A   4       9.407  27.336  21.249  0.00  0.00    +0.176 C 
BRANCH  49  52
ATOM     50  C   ASP A   3      11.254  26.400  22.491  0.00  0.00    +0.241 C 
ATOM     51  O   ASP A   3      10.770  25.267  22.488  0.00  0.00    -0.273 OA
ATOM     52  N   THR A   4      10.699  27.466  21.893  0.00  0.00    -0.295 N 
ATOM     53  H   THR A   4      11.194  28.381  21.892  0.00  0.00    +0.150 HD
BRANCH  50  54
ATOM     54  CA  ASP A   3      12.572  26.671  23.192  0.00  0.00    +0.160 C 
BRANCH  54  56
ATOM     55  C   LEU A   2      13.045  28.040  25.138  0.00  0.00    +0.241 C 
ATOM     56  N   ASP A   3      12.500  26.955  24.621  0.00  0.00    -0.297 N 
ATOM     57  H   ASP A   3      12.007  26.287  25.247  0.00  0.00    +0.150 HD
ATOM     58  O   LEU A   2      13.466  28.986  24.482  0.00  0.00    -0.273 OA
BRANCH  55  59
ATOM     59  CA  LEU A   2      13.127  28.051  26.653  0.00  0.00    +0.149 C 
BRANCH  59  61
ATOM     60  C   LEU A   1      15.270  26.996  26.917  0.00  0.00    +0.238 C 
ATOM     61  N   LEU A   2      14.523  28.073  27.041  0.00  0.00    -0.297 N 
ATOM     62  H   LEU A   2      14.939  28.947  27.421  0.00  0.00    +0.150 HD
ATOM     63  O   LEU A   1      14.763  25.902  26.631  0.00  0.00    -0.274 OA
BRANCH  60  64
ATOM     64  CA  LEU A   1      16.761  27.072  27.139  0.00  0.00    +0.145 C 
BRANCH  64  65
ATOM     65  N   LEU A   1      17.198  26.151  28.171  0.00  0.00    -0.238 NA
ATOM     66  H   LEU A   1      17.374  25.165  27.889  0.00  0.00    +0.142 HD
ENDBRANCH  64  65
BRANCH  64  67
ATOM     67  CB  LEU A   1      17.524  26.687  25.882  0.00  0.00    +0.026 C 
BRANCH  67  68
ATOM     68  CG  LEU A   1      17.399  27.505  24.627  0.00  0.00    +0.002 C 
ATOM     69  CD2 LEU A   1      17.891  28.912  24.864  0.00  0.00    +0.000 C 
ATOM     70  CD1 LEU A   1      18.214  26.897  23.507  0.00  0.00    +0.000 C 
ENDBRANCH  67  68
ENDBRANCH  64  67
ENDBRANCH  60  64
ENDBRANCH  59  61
BRANCH  59  71
ATOM     71  CB  LEU A   2      12.380  29.260  27.202  0.00  0.00    +0.029 C 
BRANCH  71  72
ATOM     72  CG  LEU A   2      12.482  29.436  28.722  0.00  0.00    +0.002 C 
ATOM     73  CD2 LEU A   2      11.893  28.261  29.446  0.00  0.00    +0.000 C 
ATOM     74  CD1 LEU A   2      11.786  30.736  29.112  0.00  0.00    +0.000 C 
ENDBRANCH  71  72
ENDBRANCH  59  71
ENDBRANCH  55  59
ENDBRANCH  54  56
BRANCH  54  75
ATOM     75  CB  ASP A   3      13.463  25.439  23.037  0.00  0.00    +0.143 C 
BRANCH  75  76
ATOM     76  CG  ASP A   3      13.890  25.182  21.603  0.00  0.00    +0.367 C 
ATOM     77  OD2 ASP A   3      14.760  24.302  21.444  0.00  0.00    -0.246 OA
ATOM     78  OD1 ASP A   3      13.358  25.854  20.695  0.00  0.00    -0.246 OA
ENDBRANCH  75  76
ENDBRANCH  54  75
ENDBRANCH  50  54
ENDBRANCH  49  52
BRANCH  49  79
ATOM     79  CB  THR A   4       8.824  28.691  20.814  0.00  0.00    +0.137 C 
ATOM     80  CG2 THR A   4       8.595  29.547  22.056  0.00  0.00    +0.034 C 
BRANCH  79  81
ATOM     81  OG1 THR A   4       9.756  29.368  19.985  0.00  0.00    -0.382 OA
ATOM     82  HG1 THR A   4       9.943  28.818  19.183  0.00  0.00    +0.210 HD
ENDBRANCH  79  81
ENDBRANCH  49  79
ENDBRANCH  45  49
ENDBRANCH  44  47
ENDBRANCH   1  44
TORSDOF 35
REMARK  Name = ../refined-set-2016/2z4o/2z4o_pocket.pdb
REMARK  233 active torsions:
REMARK  status: ('A' for Active; 'I' for Inactive)
REMARK    1  A    between atoms: _1  and  _3
REMARK    2  A    between atoms: _3  and  _4
REMARK    3  A    between atoms: _3  and  _6
REMARK    4  A    between atoms: _6  and  _7
REMARK    5  A    between atoms: _7  and  _8
REMARK    6  A    between atoms: _8  and  _9
REMARK    7  A    between atoms: _11  and  _15
REMARK    8  A    between atoms: _18  and  _20
REMARK    9  A    between atoms: _20  and  _21
REMARK   10  A    between atoms: _20  and  _23
REMARK   11  A    between atoms: _23  and  _24
REMARK   12  A    between atoms: _27  and  _29
REMARK   13  A    between atoms: _29  and  _30
REMARK   14  A    between atoms: _29  and  _32
REMARK   15  A    between atoms: _32  and  _33
REMARK   16  A    between atoms: _36  and  _38
REMARK   17  A    between atoms: _38  and  _39
REMARK   18  A    between atoms: _38  and  _41
REMARK   19  A    between atoms: _41  and  _42
REMARK   20  A    between atoms: _45  and  _47
REMARK   21  A    between atoms: _47  and  _48
REMARK   22  A    between atoms: _47  and  _50
REMARK   23  A    between atoms: _50  and  _51
REMARK   24  A    between atoms: _54  and  _56
REMARK   25  A    between atoms: _56  and  _57
REMARK   26  A    between atoms: _59  and  _61
REMARK   27  A    between atoms: _61  and  _62
REMARK   28  A    between atoms: _65  and  _67
REMARK   29  A    between atoms: _67  and  _68
REMARK   30  A    between atoms: _67  and  _70
REMARK   31  A    between atoms: _70  and  _71
REMARK   32  A    between atoms: _74  and  _76
REMARK   33  A    between atoms: _76  and  _77
REMARK   34  A    between atoms: _76  and  _79
REMARK   35  A    between atoms: _79  and  _80
REMARK   36  A    between atoms: _83  and  _85
REMARK   37  A    between atoms: _85  and  _86
REMARK   38  A    between atoms: _85  and  _88
REMARK   39  A    between atoms: _88  and  _89
REMARK   40  A    between atoms: _92  and  _94
REMARK   41  A    between atoms: _94  and  _95
REMARK   42  A    between atoms: _94  and  _97
REMARK   43  A    between atoms: _100  and  _102
REMARK   44  A    between atoms: _102  and  _103
REMARK   45  A    between atoms: _102  and  _105
REMARK   46  A    between atoms: _105  and  _106
REMARK   47  A    between atoms: _106  and  _107
REMARK   48  A    between atoms: _107  and  _108
REMARK   49  A    between atoms: _108  and  _109
REMARK   50  A    between atoms: _113  and  _115
REMARK   51  A    between atoms: _115  and  _116
REMARK   52  A    between atoms: _115  and  _118
REMARK   53  A    between atoms: _118  and  _119
REMARK   54  A    between atoms: _119  and  _120
REMARK   55  A    between atoms: _122  and  _124
REMARK   56  A    between atoms: _124  and  _125
REMARK   57  A    between atoms: _124  and  _127
REMARK   58  A    between atoms: _127  and  _128
REMARK   59  A    between atoms: _131  and  _133
REMARK   60  A    between atoms: _133  and  _134
REMARK   61  A    between atoms: _136  and  _138
REMARK   62  A    between atoms: _138  and  _139
REMARK   63  A    between atoms: _141  and  _143
REMARK   64  A    between atoms: _143  and  _144
REMARK   65  A    between atoms: _143  and  _146
REMARK   66  A    between atoms: _146  and  _147
REMARK   67  A    between atoms: _150  and  _152
REMARK   68  A    between atoms: _152  and  _153
REMARK   69  A    between atoms: _155  and  _157
REMARK   70  A    between atoms: _157  and  _158
REMARK   71  A    between atoms: _160  and  _162
REMARK   72  A    between atoms: _162  and  _163
REMARK   73  A    between atoms: _162  and  _165
REMARK   74  A    between atoms: _165  and  _166
REMARK   75  A    between atoms: _172  and  _174
REMARK   76  A    between atoms: _174  and  _175
REMARK   77  A    between atoms: _174  and  _177
REMARK   78  A    between atoms: _177  and  _178
REMARK   79  A    between atoms: _181  and  _183
REMARK   80  A    between atoms: _183  and  _184
REMARK   81  A    between atoms: _183  and  _186
REMARK   82  A    between atoms: _189  and  _191
REMARK   83  A    between atoms: _191  and  _192
REMARK   84  A    between atoms: _191  and  _194
REMARK   85  A    between atoms: _194  and  _195
REMARK   86  A    between atoms: _198  and  _200
REMARK   87  A    between atoms: _200  and  _201
REMARK   88  A    between atoms: _200  and  _203
REMARK   89  A    between atoms: _203  and  _204
REMARK   90  A    between atoms: _208  and  _209
REMARK   91  A    between atoms: _214  and  _216
REMARK   92  A    between atoms: _216  and  _217
REMARK   93  A    between atoms: _216  and  _219
REMARK   94  A    between atoms: _222  and  _224
REMARK   95  A    between atoms: _224  and  _225
REMARK   96  A    between atoms: _224  and  _227
REMARK   97  A    between atoms: _227  and  _228
REMARK   98  A    between atoms: _233  and  _235
REMARK   99  A    between atoms: _235  and  _236
REMARK  100  A    between atoms: _235  and  _238
REMARK  101  A    between atoms: _238  and  _239
REMARK  102  A    between atoms: _242  and  _244
REMARK  103  A    between atoms: _244  and  _245
REMARK  104  A    between atoms: _244  and  _247
REMARK  105  A    between atoms: _247  and  _248
REMARK  106  A    between atoms: _251  and  _253
REMARK  107  A    between atoms: _253  and  _254
REMARK  108  A    between atoms: _256  and  _258
REMARK  109  A    between atoms: _258  and  _259
REMARK  110  A    between atoms: _258  and  _261
REMARK  111  A    between atoms: _261  and  _262
REMARK  112  A    between atoms: _262  and  _263
REMARK  113  A    between atoms: _263  and  _264
REMARK  114  A    between atoms: _273  and  _275
REMARK  115  A    between atoms: _275  and  _276
REMARK  116  A    between atoms: _275  and  _278
REMARK  117  A    between atoms: _278  and  _279
REMARK  118  A    between atoms: _284  and  _286
REMARK  119  A    between atoms: _286  and  _287
REMARK  120  A    between atoms: _286  and  _289
REMARK  121  A    between atoms: _289  and  _290
REMARK  122  A    between atoms: _290  and  _291
REMARK  123  A    between atoms: _291  and  _292
REMARK  124  A    between atoms: _301  and  _303
REMARK  125  A    between atoms: _303  and  _304
REMARK  126  A    between atoms: _303  and  _306
REMARK  127  A    between atoms: _306  and  _307
REMARK  128  A    between atoms: _310  and  _312
REMARK  129  A    between atoms: _312  and  _313
REMARK  130  A    between atoms: _312  and  _315
REMARK  131  A    between atoms: _315  and  _316
REMARK  132  A    between atoms: _319  and  _321
REMARK  133  A    between atoms: _321  and  _322
REMARK  134  A    between atoms: _321  and  _324
REMARK  135  A    between atoms: _324  and  _325
REMARK  136  A    between atoms: _328  and  _330
REMARK  137  A    between atoms: _330  and  _331
REMARK  138  A    between atoms: _330  and  _333
REMARK  139  A    between atoms: _333  and  _334
REMARK  140  A    between atoms: _337  and  _339
REMARK  141  A    between atoms: _339  and  _340
REMARK  142  A    between atoms: _342  and  _344
REMARK  143  A    between atoms: _344  and  _345
REMARK  144  A    between atoms: _348  and  _350
REMARK  145  A    between atoms: _350  and  _351
REMARK  146  A    between atoms: _350  and  _353
REMARK  147  A    between atoms: _353  and  _354
REMARK  148  A    between atoms: _357  and  _359
REMARK  149  A    between atoms: _359  and  _360
REMARK  150  A    between atoms: _359  and  _362
REMARK  151  A    between atoms: _362  and  _363
REMARK  152  A    between atoms: _366  and  _368
REMARK  153  A    between atoms: _368  and  _369
REMARK  154  A    between atoms: _368  and  _371
REMARK  155  A    between atoms: _371  and  _372
REMARK  156  A    between atoms: _375  and  _377
REMARK  157  A    between atoms: _377  and  _378
REMARK  158  A    between atoms: _377  and  _380
REMARK  159  A    between atoms: _383  and  _385
REMARK  160  A    between atoms: _385  and  _386
REMARK  161  A    between atoms: _385  and  _388
REMARK  162  A    between atoms: _388  and  _389
REMARK  163  A    between atoms: _389  and  _390
REMARK  164  A    between atoms: _390  and  _391
REMARK  165  A    between atoms: _391  and  _392
REMARK  166  A    between atoms: _396  and  _398
REMARK  167  A    between atoms: _398  and  _399
REMARK  168  A    between atoms: _398  and  _401
REMARK  169  A    between atoms: _401  and  _402
REMARK  170  A    between atoms: _402  and  _403
REMARK  171  A    between atoms: _405  and  _407
REMARK  172  A    between atoms: _407  and  _408
REMARK  173  A    between atoms: _407  and  _410
REMARK  174  A    between atoms: _410  and  _411
REMARK  175  A    between atoms: _414  and  _416
REMARK  176  A    between atoms: _416  and  _417
REMARK  177  A    between atoms: _419  and  _421
REMARK  178  A    between atoms: _421  and  _422
REMARK  179  A    between atoms: _424  and  _426
REMARK  180  A    between atoms: _426  and  _427
REMARK  181  A    between atoms: _426  and  _429
REMARK  182  A    between atoms: _429  and  _430
REMARK  183  A    between atoms: _433  and  _435
REMARK  184  A    between atoms: _435  and  _436
REMARK  185  A    between atoms: _438  and  _440
REMARK  186  A    between atoms: _440  and  _441
REMARK  187  A    between atoms: _443  and  _445
REMARK  188  A    between atoms: _445  and  _446
REMARK  189  A    between atoms: _445  and  _448
REMARK  190  A    between atoms: _448  and  _449
REMARK  191  A    between atoms: _455  and  _457
REMARK  192  A    between atoms: _457  and  _458
REMARK  193  A    between atoms: _457  and  _460
REMARK  194  A    between atoms: _460  and  _461
REMARK  195  A    between atoms: _464  and  _466
REMARK  196  A    between atoms: _466  and  _467
REMARK  197  A    between atoms: _466  and  _469
REMARK  198  A    between atoms: _472  and  _474
REMARK  199  A    between atoms: _474  and  _475
REMARK  200  A    between atoms: _474  and  _477
REMARK  201  A    between atoms: _477  and  _478
REMARK  202  A    between atoms: _481  and  _483
REMARK  203  A    between atoms: _483  and  _484
REMARK  204  A    between atoms: _483  and  _486
REMARK  205  A    between atoms: _486  and  _487
REMARK  206  A    between atoms: _491  and  _492
REMARK  207  A    between atoms: _497  and  _499
REMARK  208  A    between atoms: _499  and  _500
REMARK  209  A    between atoms: _499  and  _502
REMARK  210  A    between atoms: _505  and  _507
REMARK  211  A    between atoms: _507  and  _508
REMARK  212  A    between atoms: _507  and  _510
REMARK  213  A    between atoms: _510  and  _511
REMARK  214  A    between atoms: _516  and  _518
REMARK  215  A    between atoms: _518  and  _519
REMARK  216  A    between atoms: _518  and  _521
REMARK  217  A    between atoms: _521  and  _522
REMARK  218  A    between atoms: _525  and  _527
REMARK  219  A    between atoms: _527  and  _528
REMARK  220  A    between atoms: _527  and  _530
REMARK  221  A    between atoms: _530  and  _531
REMARK  222  A    between atoms: _534  and  _536
REMARK  223  A    between atoms: _536  and  _537
REMARK  224  A    between atoms: _539  and  _541
REMARK  225  A    between atoms: _541  and  _542
REMARK  226  A    between atoms: _541  and  _544
REMARK  227  A    between atoms: _544  and  _545
REMARK  228  A    between atoms: _545  and  _546
REMARK  229  A    between atoms: _546  and  _547
REMARK  230  A    between atoms: _556  and  _558
REMARK  231  A    between atoms: _558  and  _559
REMARK  232  A    between atoms: _558  and  _561
REMARK  233  A    between atoms: _561  and  _562
REMARK                            x       y       z     vdW  Elec       q    Type
REMARK                         _______ _______ _______ _____ _____    ______ ____
ROOT
ATOM      1  C   GLY A   5      17.304  18.243  13.861  0.00  0.00    +0.243 C 
ATOM      2  N   ILE A   6      17.994  19.377  13.926  0.00  0.00    -0.297 N 
ATOM      3  H   ILE A   6      18.098  19.877  14.832  0.00  0.00    +0.150 HD
ATOM      4  O   GLY A   5      17.305  17.534  12.841  0.00  0.00    -0.273 OA
ENDROOT
BRANCH   2   5
ATOM      5  CA  ILE A   6      18.603  19.913  12.715  0.00  0.00    +0.149 C 
BRANCH   5   6
ATOM      6  C   ILE A   6      19.587  18.928  12.097  0.00  0.00    +0.241 C 
ATOM      7  N   GLY A   7      20.347  18.156  12.860  0.00  0.00    -0.295 N 
ATOM      8  H   GLY A   7      20.194  18.170  13.889  0.00  0.00    +0.150 HD
ATOM      9  O   ILE A   6      19.609  18.885  10.865  0.00  0.00    -0.273 OA
BRANCH   7  10
ATOM     10  CA  GLY A   7      21.385  17.290  12.324  0.00  0.00    +0.176 C 
BRANCH  10  11
ATOM     11  C   GLY A   7      20.977  15.858  12.110  0.00  0.00    +0.243 C 
ATOM     12  N   GLY A   8      19.754  15.516  12.448  0.00  0.00    -0.295 N 
ATOM     13  H   GLY A   8      19.108  16.254  12.794  0.00  0.00    +0.150 HD
ATOM     14  O   GLY A   7      21.735  15.009  11.633  0.00  0.00    -0.273 OA
BRANCH  12  15
ATOM     15  CA  GLY A   8      19.266  14.151  12.359  0.00  0.00    +0.176 C 
BRANCH  15  16
ATOM     16  C   GLY A   8      18.572  13.759  13.652  0.00  0.00    +0.243 C 
ATOM     17  O   GLY A   8      18.290  14.589  14.483  0.00  0.00    -0.273 OA
ATOM     18  N   PHE A   9      18.328  12.461  13.744  0.00  0.00    -0.297 N 
ATOM     19  H   PHE A   9      18.711  11.841  13.002  0.00  0.00    +0.150 HD
BRANCH  18  20
ATOM     20  CA  PHE A   9      17.560  11.844  14.815  0.00  0.00    +0.153 C 
BRANCH  20  21
ATOM     21  C   PHE A   9      18.457  11.281  15.895  0.00  0.00    +0.241 C 
ATOM     22  N   ILE A  10      17.961  11.320  17.121  0.00  0.00    -0.298 N 
ATOM     23  H   ILE A  10      17.058  11.800  17.312  0.00  0.00    +0.150 HD
ATOM     24  O   PHE A   9      19.572  10.811  15.666  0.00  0.00    -0.273 OA
BRANCH  22  25
ATOM     25  CA  ILE A  10      18.700  10.680  18.197  0.00  0.00    +0.137 C 
BRANCH  25  26
ATOM     26  C   ILE A  10      17.681   9.873  18.996  0.00  0.00    +0.227 C 
ATOM     27  O   ILE A  10      16.483  10.194  18.978  0.00  0.00    -0.286 OA
ENDBRANCH  25  26
BRANCH  25  28
ATOM     28  CB  ILE A  10      19.439  11.668  19.112  0.00  0.00    +0.026 C 
ATOM     29  CG2 ILE A  10      20.521  12.422  18.347  0.00  0.00    +0.002 C 
BRANCH  28  30
ATOM     30  CG1 ILE A  10      18.510  12.639  19.827  0.00  0.00    +0.002 C 
ATOM     31  CD1 ILE A  10      19.008  13.454  20.986  0.00  0.00    +0.000 C 
ENDBRANCH  28  30
ENDBRANCH  25  28
ENDBRANCH  22  25
ENDBRANCH  20  21
BRANCH  20  32
ATOM     32  CB  PHE A   9      16.684  10.711  14.263  0.00  0.00    +0.055 C 
BRANCH  32  33
ATOM     33  CG  PHE A   9      15.474  11.286  13.552  0.00  0.00    -0.020 A 
ATOM     34  CD2 PHE A   9      14.254  11.344  14.208  0.00  0.00    -0.004 A 
ATOM     35  CE2 PHE A   9      13.146  11.878  13.558  0.00  0.00    -0.000 A 
ATOM     36  CZ  PHE A   9      13.255  12.354  12.258  0.00  0.00    -0.000 A 
ATOM     37  CE1 PHE A   9      14.478  12.289  11.610  0.00  0.00    -0.000 A 
ATOM     38  CD1 PHE A   9      15.583  11.757  12.256  0.00  0.00    -0.004 A 
ENDBRANCH  32  33
ENDBRANCH  20  32
ENDBRANCH  18  20
ENDBRANCH  15  16
ENDBRANCH  12  15
ENDBRANCH  10  11
ENDBRANCH   7  10
ENDBRANCH   5   6
BRANCH   5  39
ATOM     39  CB  ILE A   6      19.281  21.278  12.983  0.00  0.00    +0.027 C 
ATOM     40  CG2 ILE A   6      20.773  21.317  13.173  0.00  0.00    +0.002 C 
BRANCH  39  41
ATOM     41  CG1 ILE A   6      18.901  22.213  11.815  0.00  0.00    +0.002 C 
ATOM     42  CD1 ILE A   6      19.222  23.647  12.097  0.00  0.00    +0.000 C 
ENDBRANCH  39  41
ENDBRANCH   5  39
ENDBRANCH   2   5
BRANCH   1  43
ATOM     43  CA  GLY A   5      16.560  17.873  15.125  0.00  0.00    +0.176 C 
BRANCH  43  46
ATOM     44  C   GLY A   4      14.939  16.153  15.160  0.00  0.00    +0.243 C 
ATOM     45  O   GLY A   4      14.102  17.026  15.316  0.00  0.00    -0.273 OA
ATOM     46  N   GLY A   5      16.226  16.475  15.091  0.00  0.00    -0.295 N 
ATOM     47  H   GLY A   5      16.963  15.745  15.015  0.00  0.00    +0.150 HD
BRANCH  44  48
ATOM     48  CA  GLY A   4      14.619  14.687  15.037  0.00  0.00    +0.176 C 
BRANCH  48  51
ATOM     49  C   ILE A   3      14.450  13.351  17.030  0.00  0.00    +0.241 C 
ATOM     50  O   ILE A   3      15.595  12.940  16.968  0.00  0.00    -0.273 OA
ATOM     51  N   GLY A   4      13.908  14.227  16.215  0.00  0.00    -0.295 N 
ATOM     52  H   GLY A   4      12.957  14.596  16.417  0.00  0.00    +0.150 HD
BRANCH  49  53
ATOM     53  CA  ILE A   3      13.489  12.864  18.094  0.00  0.00    +0.149 C 
BRANCH  53  55
ATOM     54  C   MET A   2      12.931  10.549  18.336  0.00  0.00    +0.241 C 
ATOM     55  N   ILE A   3      13.868  11.476  18.421  0.00  0.00    -0.297 N 
ATOM     56  H   ILE A   3      14.838  11.236  18.708  0.00  0.00    +0.150 HD
ATOM     57  O   MET A   2      11.753  10.733  18.063  0.00  0.00    -0.273 OA
BRANCH  54  58
ATOM     58  CA  MET A   2      13.381   9.129  18.613  0.00  0.00    +0.149 C 
BRANCH  58  61
ATOM     59  C   LYS A   1      12.799   8.243  20.781  0.00  0.00    +0.238 C 
ATOM     60  O   LYS A   1      13.930   8.276  21.219  0.00  0.00    -0.274 OA
ATOM     61  N   MET A   2      12.469   8.562  19.574  0.00  0.00    -0.297 N 
ATOM     62  H   MET A   2      11.485   8.400  19.277  0.00  0.00    +0.150 HD
BRANCH  59  63
ATOM     63  CA  LYS A   1      11.646   7.808  21.658  0.00  0.00    +0.145 C 
BRANCH  63  64
ATOM     64  N   LYS A   1      12.128   6.795  22.558  0.00  0.00    -0.238 NA
ATOM     65  H   LYS A   1      13.132   6.790  22.830  0.00  0.00    +0.142 HD
ENDBRANCH  63  64
BRANCH  63  66
ATOM     66  CB  LYS A   1      11.079   9.053  22.357  0.00  0.00    +0.026 C 
BRANCH  66  67
ATOM     67  CG  LYS A   1      10.169   9.853  21.432  0.00  0.00    -0.000 C 
BRANCH  67  68
ATOM     68  CD  LYS A   1       9.571  11.102  22.042  0.00  0.00    -0.024 C 
BRANCH  68  69
ATOM     69  CE  LYS A   1       8.551  11.765  21.132  0.00  0.00    -0.086 C 
BRANCH  69  70
ATOM     70  NZ  LYS A   1       7.752  12.828  21.803  0.00  0.00    +0.380 N 
ATOM     71  HZ1 LYS A   1       7.232  12.416  22.604  0.00  0.00    -0.089 HD
ATOM     72  HZ2 LYS A   1       8.390  13.573  22.149  0.00  0.00    -0.089 HD
ATOM     73  HZ3 LYS A   1       7.078  13.235  21.123  0.00  0.00    -0.089 HD
ENDBRANCH  69  70
ENDBRANCH  68  69
ENDBRANCH  67  68
ENDBRANCH  66  67
ENDBRANCH  63  66
ENDBRANCH  59  63
ENDBRANCH  58  61
BRANCH  58  74
ATOM     74  CB  MET A   2      13.411   8.351  17.295  0.00  0.00    +0.041 C 
BRANCH  74  75
ATOM     75  CG  MET A   2      14.055   6.966  17.416  0.00  0.00    +0.060 C 
BRANCH  75  76
ATOM     76  SD  MET A   2      15.830   7.114  17.129  0.00  0.00    -0.139 S 
ATOM     77  CE  MET A   2      15.822   7.430  15.368  0.00  0.00    +0.069 C 
ENDBRANCH  75  76
ENDBRANCH  74  75
ENDBRANCH  58  74
ENDBRANCH  54  58
ENDBRANCH  53  55
BRANCH  53  78
ATOM     78  CB  ILE A   3      13.506  13.803  19.290  0.00  0.00    +0.027 C 
ATOM     79  CG2 ILE A   3      12.378  13.398  20.221  0.00  0.00    +0.002 C 
BRANCH  78  80
ATOM     80  CG1 ILE A   3      14.859  13.866  19.996  0.00  0.00    +0.002 C 
ATOM     81  CD1 ILE A   3      14.898  14.772  21.208  0.00  0.00    +0.000 C 
ENDBRANCH  78  80
ENDBRANCH  53  78
ENDBRANCH  49  53
ENDBRANCH  48  51
ENDBRANCH  44  48
ENDBRANCH  43  46
ENDBRANCH   1  43
TORSDOF 36
REMARK  Name = ../refined-set-2016/2z4o/2z4o_pocket.pdb
REMARK  233 active torsions:
REMARK  status: ('A' for Active; 'I' for Inactive)
REMARK    1  A    between atoms: _1  and  _3
REMARK    2  A    between atoms: _3  and  _4
REMARK    3  A    between atoms: _3  and  _6
REMARK    4  A    between atoms: _6  and  _7
REMARK    5  A    between atoms: _7  and  _8
REMARK    6  A    between atoms: _8  and  _9
REMARK    7  A    between atoms: _11  and  _15
REMARK    8  A    between atoms: _18  and  _20
REMARK    9  A    between atoms: _20  and  _21
REMARK   10  A    between atoms: _20  and  _23
REMARK   11  A    between atoms: _23  and  _24
REMARK   12  A    between atoms: _27  and  _29
REMARK   13  A    between atoms: _29  and  _30
REMARK   14  A    between atoms: _29  and  _32
REMARK   15  A    between atoms: _32  and  _33
REMARK   16  A    between atoms: _36  and  _38
REMARK   17  A    between atoms: _38  and  _39
REMARK   18  A    between atoms: _38  and  _41
REMARK   19  A    between atoms: _41  and  _42
REMARK   20  A    between atoms: _45  and  _47
REMARK   21  A    between atoms: _47  and  _48
REMARK   22  A    between atoms: _47  and  _50
REMARK   23  A    between atoms: _50  and  _51
REMARK   24  A    between atoms: _54  and  _56
REMARK   25  A    between atoms: _56  and  _57
REMARK   26  A    between atoms: _59  and  _61
REMARK   27  A    between atoms: _61  and  _62
REMARK   28  A    between atoms: _65  and  _67
REMARK   29  A    between atoms: _67  and  _68
REMARK   30  A    between atoms: _67  and  _70
REMARK   31  A    between atoms: _70  and  _71
REMARK   32  A    between atoms: _74  and  _76
REMARK   33  A    between atoms: _76  and  _77
REMARK   34  A    between atoms: _76  and  _79
REMARK   35  A    between atoms: _79  and  _80
REMARK   36  A    between atoms: _83  and  _85
REMARK   37  A    between atoms: _85  and  _86
REMARK   38  A    between atoms: _85  and  _88
REMARK   39  A    between atoms: _88  and  _89
REMARK   40  A    between atoms: _92  and  _94
REMARK   41  A    between atoms: _94  and  _95
REMARK   42  A    between atoms: _94  and  _97
REMARK   43  A    between atoms: _100  and  _102
REMARK   44  A    between atoms: _102  and  _103
REMARK   45  A    between atoms: _102  and  _105
REMARK   46  A    between atoms: _105  and  _106
REMARK   47  A    between atoms: _106  and  _107
REMARK   48  A    between atoms: _107  and  _108
REMARK   49  A    between atoms: _108  and  _109
REMARK   50  A    between atoms: _113  and  _115
REMARK   51  A    between atoms: _115  and  _116
REMARK   52  A    between atoms: _115  and  _118
REMARK   53  A    between atoms: _118  and  _119
REMARK   54  A    between atoms: _119  and  _120
REMARK   55  A    between atoms: _122  and  _124
REMARK   56  A    between atoms: _124  and  _125
REMARK   57  A    between atoms: _124  and  _127
REMARK   58  A    between atoms: _127  and  _128
REMARK   59  A    between atoms: _131  and  _133
REMARK   60  A    between atoms: _133  and  _134
REMARK   61  A    between atoms: _136  and  _138
REMARK   62  A    between atoms: _138  and  _139
REMARK   63  A    between atoms: _141  and  _143
REMARK   64  A    between atoms: _143  and  _144
REMARK   65  A    between atoms: _143  and  _146
REMARK   66  A    between atoms: _146  and  _147
REMARK   67  A    between atoms: _150  and  _152
REMARK   68  A    between atoms: _152  and  _153
REMARK   69  A    between atoms: _155  and  _157
REMARK   70  A    between atoms: _157  and  _158
REMARK   71  A    between atoms: _160  and  _162
REMARK   72  A    between atoms: _162  and  _163
REMARK   73  A    between atoms: _162  and  _165
REMARK   74  A    between atoms: _165  and  _166
REMARK   75  A    between atoms: _172  and  _174
REMARK   76  A    between atoms: _174  and  _175
REMARK   77  A    between atoms: _174  and  _177
REMARK   78  A    between atoms: _177  and  _178
REMARK   79  A    between atoms: _181  and  _183
REMARK   80  A    between atoms: _183  and  _184
REMARK   81  A    between atoms: _183  and  _186
REMARK   82  A    between atoms: _189  and  _191
REMARK   83  A    between atoms: _191  and  _192
REMARK   84  A    between atoms: _191  and  _194
REMARK   85  A    between atoms: _194  and  _195
REMARK   86  A    between atoms: _198  and  _200
REMARK   87  A    between atoms: _200  and  _201
REMARK   88  A    between atoms: _200  and  _203
REMARK   89  A    between atoms: _203  and  _204
REMARK   90  A    between atoms: _208  and  _209
REMARK   91  A    between atoms: _214  and  _216
REMARK   92  A    between atoms: _216  and  _217
REMARK   93  A    between atoms: _216  and  _219
REMARK   94  A    between atoms: _222  and  _224
REMARK   95  A    between atoms: _224  and  _225
REMARK   96  A    between atoms: _224  and  _227
REMARK   97  A    between atoms: _227  and  _228
REMARK   98  A    between atoms: _233  and  _235
REMARK   99  A    between atoms: _235  and  _236
REMARK  100  A    between atoms: _235  and  _238
REMARK  101  A    between atoms: _238  and  _239
REMARK  102  A    between atoms: _242  and  _244
REMARK  103  A    between atoms: _244  and  _245
REMARK  104  A    between atoms: _244  and  _247
REMARK  105  A    between atoms: _247  and  _248
REMARK  106  A    between atoms: _251  and  _253
REMARK  107  A    between atoms: _253  and  _254
REMARK  108  A    between atoms: _256  and  _258
REMARK  109  A    between atoms: _258  and  _259
REMARK  110  A    between atoms: _258  and  _261
REMARK  111  A    between atoms: _261  and  _262
REMARK  112  A    between atoms: _262  and  _263
REMARK  113  A    between atoms: _263  and  _264
REMARK  114  A    between atoms: _273  and  _275
REMARK  115  A    between atoms: _275  and  _276
REMARK  116  A    between atoms: _275  and  _278
REMARK  117  A    between atoms: _278  and  _279
REMARK  118  A    between atoms: _284  and  _286
REMARK  119  A    between atoms: _286  and  _287
REMARK  120  A    between atoms: _286  and  _289
REMARK  121  A    between atoms: _289  and  _290
REMARK  122  A    between atoms: _290  and  _291
REMARK  123  A    between atoms: _291  and  _292
REMARK  124  A    between atoms: _301  and  _303
REMARK  125  A    between atoms: _303  and  _304
REMARK  126  A    between atoms: _303  and  _306
REMARK  127  A    between atoms: _306  and  _307
REMARK  128  A    between atoms: _310  and  _312
REMARK  129  A    between atoms: _312  and  _313
REMARK  130  A    between atoms: _312  and  _315
REMARK  131  A    between atoms: _315  and  _316
REMARK  132  A    between atoms: _319  and  _321
REMARK  133  A    between atoms: _321  and  _322
REMARK  134  A    between atoms: _321  and  _324
REMARK  135  A    between atoms: _324  and  _325
REMARK  136  A    between atoms: _328  and  _330
REMARK  137  A    between atoms: _330  and  _331
REMARK  138  A    between atoms: _330  and  _333
REMARK  139  A    between atoms: _333  and  _334
REMARK  140  A    between atoms: _337  and  _339
REMARK  141  A    between atoms: _339  and  _340
REMARK  142  A    between atoms: _342  and  _344
REMARK  143  A    between atoms: _344  and  _345
REMARK  144  A    between atoms: _348  and  _350
REMARK  145  A    between atoms: _350  and  _351
REMARK  146  A    between atoms: _350  and  _353
REMARK  147  A    between atoms: _353  and  _354
REMARK  148  A    between atoms: _357  and  _359
REMARK  149  A    between atoms: _359  and  _360
REMARK  150  A    between atoms: _359  and  _362
REMARK  151  A    between atoms: _362  and  _363
REMARK  152  A    between atoms: _366  and  _368
REMARK  153  A    between atoms: _368  and  _369
REMARK  154  A    between atoms: _368  and  _371
REMARK  155  A    between atoms: _371  and  _372
REMARK  156  A    between atoms: _375  and  _377
REMARK  157  A    between atoms: _377  and  _378
REMARK  158  A    between atoms: _377  and  _380
REMARK  159  A    between atoms: _383  and  _385
REMARK  160  A    between atoms: _385  and  _386
REMARK  161  A    between atoms: _385  and  _388
REMARK  162  A    between atoms: _388  and  _389
REMARK  163  A    between atoms: _389  and  _390
REMARK  164  A    between atoms: _390  and  _391
REMARK  165  A    between atoms: _391  and  _392
REMARK  166  A    between atoms: _396  and  _398
REMARK  167  A    between atoms: _398  and  _399
REMARK  168  A    between atoms: _398  and  _401
REMARK  169  A    between atoms: _401  and  _402
REMARK  170  A    between atoms: _402  and  _403
REMARK  171  A    between atoms: _405  and  _407
REMARK  172  A    between atoms: _407  and  _408
REMARK  173  A    between atoms: _407  and  _410
REMARK  174  A    between atoms: _410  and  _411
REMARK  175  A    between atoms: _414  and  _416
REMARK  176  A    between atoms: _416  and  _417
REMARK  177  A    between atoms: _419  and  _421
REMARK  178  A    between atoms: _421  and  _422
REMARK  179  A    between atoms: _424  and  _426
REMARK  180  A    between atoms: _426  and  _427
REMARK  181  A    between atoms: _426  and  _429
REMARK  182  A    between atoms: _429  and  _430
REMARK  183  A    between atoms: _433  and  _435
REMARK  184  A    between atoms: _435  and  _436
REMARK  185  A    between atoms: _438  and  _440
REMARK  186  A    between atoms: _440  and  _441
REMARK  187  A    between atoms: _443  and  _445
REMARK  188  A    between atoms: _445  and  _446
REMARK  189  A    between atoms: _445  and  _448
REMARK  190  A    between atoms: _448  and  _449
REMARK  191  A    between atoms: _455  and  _457
REMARK  192  A    between atoms: _457  and  _458
REMARK  193  A    between atoms: _457  and  _460
REMARK  194  A    between atoms: _460  and  _461
REMARK  195  A    between atoms: _464  and  _466
REMARK  196  A    between atoms: _466  and  _467
REMARK  197  A    between atoms: _466  and  _469
REMARK  198  A    between atoms: _472  and  _474
REMARK  199  A    between atoms: _474  and  _475
REMARK  200  A    between atoms: _474  and  _477
REMARK  201  A    between atoms: _477  and  _478
REMARK  202  A    between atoms: _481  and  _483
REMARK  203  A    between atoms: _483  and  _484
REMARK  204  A    between atoms: _483  and  _486
REMARK  205  A    between atoms: _486  and  _487
REMARK  206  A    between atoms: _491  and  _492
REMARK  207  A    between atoms: _497  and  _499
REMARK  208  A    between atoms: _499  and  _500
REMARK  209  A    between atoms: _499  and  _502
REMARK  210  A    between atoms: _505  and  _507
REMARK  211  A    between atoms: _507  and  _508
REMARK  212  A    between atoms: _507  and  _510
REMARK  213  A    between atoms: _510  and  _511
REMARK  214  A    between atoms: _516  and  _518
REMARK  215  A    between atoms: _518  and  _519
REMARK  216  A    between atoms: _518  and  _521
REMARK  217  A    between atoms: _521  and  _522
REMARK  218  A    between atoms: _525  and  _527
REMARK  219  A    between atoms: _527  and  _528
REMARK  220  A    between atoms: _527  and  _530
REMARK  221  A    between atoms: _530  and  _531
REMARK  222  A    between atoms: _534  and  _536
REMARK  223  A    between atoms: _536  and  _537
REMARK  224  A    between atoms: _539  and  _541
REMARK  225  A    between atoms: _541  and  _542
REMARK  226  A    between atoms: _541  and  _544
REMARK  227  A    between atoms: _544  and  _545
REMARK  228  A    between atoms: _545  and  _546
REMARK  229  A    between atoms: _546  and  _547
REMARK  230  A    between atoms: _556  and  _558
REMARK  231  A    between atoms: _558  and  _559
REMARK  232  A    between atoms: _558  and  _561
REMARK  233  A    between atoms: _561  and  _562
REMARK                            x       y       z     vdW  Elec       q    Type
REMARK                         _______ _______ _______ _____ _____    ______ ____
ROOT
ATOM      1  CA  VAL A   1      16.392   9.418  24.054  0.00  0.00    +0.133 C 
ENDROOT
BRANCH   1   2
ATOM      2  CB  VAL A   1      15.828  10.845  24.070  0.00  0.00    +0.023 C 
ATOM      3  CG2 VAL A   1      14.394  10.828  23.536  0.00  0.00    +0.002 C 
ATOM      4  CG1 VAL A   1      16.626  11.820  23.242  0.00  0.00    +0.002 C 
ENDBRANCH   1   2
BRANCH   1   5
ATOM      5  N   VAL A   1      16.397   8.828  22.734  0.00  0.00    -0.239 NA
ATOM      6  H   VAL A   1      15.507   8.457  22.344  0.00  0.00    +0.142 HD
ENDBRANCH   1   5
BRANCH   1   7
ATOM      7  C   VAL A   1      15.549   8.500  24.923  0.00  0.00    +0.224 C 
ATOM      8  O   VAL A   1      14.852   7.627  24.396  0.00  0.00    -0.287 OA
ENDBRANCH   1   7
TORSDOF 3
REMARK  Name = ../refined-set-2016/2z4o/2z4o_pocket.pdb
REMARK  233 active torsions:
REMARK  status: ('A' for Active; 'I' for Inactive)
REMARK    1  A    between atoms: _1  and  _3
REMARK    2  A    between atoms: _3  and  _4
REMARK    3  A    between atoms: _3  and  _6
REMARK    4  A    between atoms: _6  and  _7
REMARK    5  A    between atoms: _7  and  _8
REMARK    6  A    between atoms: _8  and  _9
REMARK    7  A    between atoms: _11  and  _15
REMARK    8  A    between atoms: _18  and  _20
REMARK    9  A    between atoms: _20  and  _21
REMARK   10  A    between atoms: _20  and  _23
REMARK   11  A    between atoms: _23  and  _24
REMARK   12  A    between atoms: _27  and  _29
REMARK   13  A    between atoms: _29  and  _30
REMARK   14  A    between atoms: _29  and  _32
REMARK   15  A    between atoms: _32  and  _33
REMARK   16  A    between atoms: _36  and  _38
REMARK   17  A    between atoms: _38  and  _39
REMARK   18  A    between atoms: _38  and  _41
REMARK   19  A    between atoms: _41  and  _42
REMARK   20  A    between atoms: _45  and  _47
REMARK   21  A    between atoms: _47  and  _48
REMARK   22  A    between atoms: _47  and  _50
REMARK   23  A    between atoms: _50  and  _51
REMARK   24  A    between atoms: _54  and  _56
REMARK   25  A    between atoms: _56  and  _57
REMARK   26  A    between atoms: _59  and  _61
REMARK   27  A    between atoms: _61  and  _62
REMARK   28  A    between atoms: _65  and  _67
REMARK   29  A    between atoms: _67  and  _68
REMARK   30  A    between atoms: _67  and  _70
REMARK   31  A    between atoms: _70  and  _71
REMARK   32  A    between atoms: _74  and  _76
REMARK   33  A    between atoms: _76  and  _77
REMARK   34  A    between atoms: _76  and  _79
REMARK   35  A    between atoms: _79  and  _80
REMARK   36  A    between atoms: _83  and  _85
REMARK   37  A    between atoms: _85  and  _86
REMARK   38  A    between atoms: _85  and  _88
REMARK   39  A    between atoms: _88  and  _89
REMARK   40  A    between atoms: _92  and  _94
REMARK   41  A    between atoms: _94  and  _95
REMARK   42  A    between atoms: _94  and  _97
REMARK   43  A    between atoms: _100  and  _102
REMARK   44  A    between atoms: _102  and  _103
REMARK   45  A    between atoms: _102  and  _105
REMARK   46  A    between atoms: _105  and  _106
REMARK   47  A    between atoms: _106  and  _107
REMARK   48  A    between atoms: _107  and  _108
REMARK   49  A    between atoms: _108  and  _109
REMARK   50  A    between atoms: _113  and  _115
REMARK   51  A    between atoms: _115  and  _116
REMARK   52  A    between atoms: _115  and  _118
REMARK   53  A    between atoms: _118  and  _119
REMARK   54  A    between atoms: _119  and  _120
REMARK   55  A    between atoms: _122  and  _124
REMARK   56  A    between atoms: _124  and  _125
REMARK   57  A    between atoms: _124  and  _127
REMARK   58  A    between atoms: _127  and  _128
REMARK   59  A    between atoms: _131  and  _133
REMARK   60  A    between atoms: _133  and  _134
REMARK   61  A    between atoms: _136  and  _138
REMARK   62  A    between atoms: _138  and  _139
REMARK   63  A    between atoms: _141  and  _143
REMARK   64  A    between atoms: _143  and  _144
REMARK   65  A    between atoms: _143  and  _146
REMARK   66  A    between atoms: _146  and  _147
REMARK   67  A    between atoms: _150  and  _152
REMARK   68  A    between atoms: _152  and  _153
REMARK   69  A    between atoms: _155  and  _157
REMARK   70  A    between atoms: _157  and  _158
REMARK   71  A    between atoms: _160  and  _162
REMARK   72  A    between atoms: _162  and  _163
REMARK   73  A    between atoms: _162  and  _165
REMARK   74  A    between atoms: _165  and  _166
REMARK   75  A    between atoms: _172  and  _174
REMARK   76  A    between atoms: _174  and  _175
REMARK   77  A    between atoms: _174  and  _177
REMARK   78  A    between atoms: _177  and  _178
REMARK   79  A    between atoms: _181  and  _183
REMARK   80  A    between atoms: _183  and  _184
REMARK   81  A    between atoms: _183  and  _186
REMARK   82  A    between atoms: _189  and  _191
REMARK   83  A    between atoms: _191  and  _192
REMARK   84  A    between atoms: _191  and  _194
REMARK   85  A    between atoms: _194  and  _195
REMARK   86  A    between atoms: _198  and  _200
REMARK   87  A    between atoms: _200  and  _201
REMARK   88  A    between atoms: _200  and  _203
REMARK   89  A    between atoms: _203  and  _204
REMARK   90  A    between atoms: _208  and  _209
REMARK   91  A    between atoms: _214  and  _216
REMARK   92  A    between atoms: _216  and  _217
REMARK   93  A    between atoms: _216  and  _219
REMARK   94  A    between atoms: _222  and  _224
REMARK   95  A    between atoms: _224  and  _225
REMARK   96  A    between atoms: _224  and  _227
REMARK   97  A    between atoms: _227  and  _228
REMARK   98  A    between atoms: _233  and  _235
REMARK   99  A    between atoms: _235  and  _236
REMARK  100  A    between atoms: _235  and  _238
REMARK  101  A    between atoms: _238  and  _239
REMARK  102  A    between atoms: _242  and  _244
REMARK  103  A    between atoms: _244  and  _245
REMARK  104  A    between atoms: _244  and  _247
REMARK  105  A    between atoms: _247  and  _248
REMARK  106  A    between atoms: _251  and  _253
REMARK  107  A    between atoms: _253  and  _254
REMARK  108  A    between atoms: _256  and  _258
REMARK  109  A    between atoms: _258  and  _259
REMARK  110  A    between atoms: _258  and  _261
REMARK  111  A    between atoms: _261  and  _262
REMARK  112  A    between atoms: _262  and  _263
REMARK  113  A    between atoms: _263  and  _264
REMARK  114  A    between atoms: _273  and  _275
REMARK  115  A    between atoms: _275  and  _276
REMARK  116  A    between atoms: _275  and  _278
REMARK  117  A    between atoms: _278  and  _279
REMARK  118  A    between atoms: _284  and  _286
REMARK  119  A    between atoms: _286  and  _287
REMARK  120  A    between atoms: _286  and  _289
REMARK  121  A    between atoms: _289  and  _290
REMARK  122  A    between atoms: _290  and  _291
REMARK  123  A    between atoms: _291  and  _292
REMARK  124  A    between atoms: _301  and  _303
REMARK  125  A    between atoms: _303  and  _304
REMARK  126  A    between atoms: _303  and  _306
REMARK  127  A    between atoms: _306  and  _307
REMARK  128  A    between atoms: _310  and  _312
REMARK  129  A    between atoms: _312  and  _313
REMARK  130  A    between atoms: _312  and  _315
REMARK  131  A    between atoms: _315  and  _316
REMARK  132  A    between atoms: _319  and  _321
REMARK  133  A    between atoms: _321  and  _322
REMARK  134  A    between atoms: _321  and  _324
REMARK  135  A    between atoms: _324  and  _325
REMARK  136  A    between atoms: _328  and  _330
REMARK  137  A    between atoms: _330  and  _331
REMARK  138  A    between atoms: _330  and  _333
REMARK  139  A    between atoms: _333  and  _334
REMARK  140  A    between atoms: _337  and  _339
REMARK  141  A    between atoms: _339  and  _340
REMARK  142  A    between atoms: _342  and  _344
REMARK  143  A    between atoms: _344  and  _345
REMARK  144  A    between atoms: _348  and  _350
REMARK  145  A    between atoms: _350  and  _351
REMARK  146  A    between atoms: _350  and  _353
REMARK  147  A    between atoms: _353  and  _354
REMARK  148  A    between atoms: _357  and  _359
REMARK  149  A    between atoms: _359  and  _360
REMARK  150  A    between atoms: _359  and  _362
REMARK  151  A    between atoms: _362  and  _363
REMARK  152  A    between atoms: _366  and  _368
REMARK  153  A    between atoms: _368  and  _369
REMARK  154  A    between atoms: _368  and  _371
REMARK  155  A    between atoms: _371  and  _372
REMARK  156  A    between atoms: _375  and  _377
REMARK  157  A    between atoms: _377  and  _378
REMARK  158  A    between atoms: _377  and  _380
REMARK  159  A    between atoms: _383  and  _385
REMARK  160  A    between atoms: _385  and  _386
REMARK  161  A    between atoms: _385  and  _388
REMARK  162  A    between atoms: _388  and  _389
REMARK  163  A    between atoms: _389  and  _390
REMARK  164  A    between atoms: _390  and  _391
REMARK  165  A    between atoms: _391  and  _392
REMARK  166  A    between atoms: _396  and  _398
REMARK  167  A    between atoms: _398  and  _399
REMARK  168  A    between atoms: _398  and  _401
REMARK  169  A    between atoms: _401  and  _402
REMARK  170  A    between atoms: _402  and  _403
REMARK  171  A    between atoms: _405  and  _407
REMARK  172  A    between atoms: _407  and  _408
REMARK  173  A    between atoms: _407  and  _410
REMARK  174  A    between atoms: _410  and  _411
REMARK  175  A    between atoms: _414  and  _416
REMARK  176  A    between atoms: _416  and  _417
REMARK  177  A    between atoms: _419  and  _421
REMARK  178  A    between atoms: _421  and  _422
REMARK  179  A    between atoms: _424  and  _426
REMARK  180  A    between atoms: _426  and  _427
REMARK  181  A    between atoms: _426  and  _429
REMARK  182  A    between atoms: _429  and  _430
REMARK  183  A    between atoms: _433  and  _435
REMARK  184  A    between atoms: _435  and  _436
REMARK  185  A    between atoms: _438  and  _440
REMARK  186  A    between atoms: _440  and  _441
REMARK  187  A    between atoms: _443  and  _445
REMARK  188  A    between atoms: _445  and  _446
REMARK  189  A    between atoms: _445  and  _448
REMARK  190  A    between atoms: _448  and  _449
REMARK  191  A    between atoms: _455  and  _457
REMARK  192  A    between atoms: _457  and  _458
REMARK  193  A    between atoms: _457  and  _460
REMARK  194  A    between atoms: _460  and  _461
REMARK  195  A    between atoms: _464  and  _466
REMARK  196  A    between atoms: _466  and  _467
REMARK  197  A    between atoms: _466  and  _469
REMARK  198  A    between atoms: _472  and  _474
REMARK  199  A    between atoms: _474  and  _475
REMARK  200  A    between atoms: _474  and  _477
REMARK  201  A    between atoms: _477  and  _478
REMARK  202  A    between atoms: _481  and  _483
REMARK  203  A    between atoms: _483  and  _484
REMARK  204  A    between atoms: _483  and  _486
REMARK  205  A    between atoms: _486  and  _487
REMARK  206  A    between atoms: _491  and  _492
REMARK  207  A    between atoms: _497  and  _499
REMARK  208  A    between atoms: _499  and  _500
REMARK  209  A    between atoms: _499  and  _502
REMARK  210  A    between atoms: _505  and  _507
REMARK  211  A    between atoms: _507  and  _508
REMARK  212  A    between atoms: _507  and  _510
REMARK  213  A    between atoms: _510  and  _511
REMARK  214  A    between atoms: _516  and  _518
REMARK  215  A    between atoms: _518  and  _519
REMARK  216  A    between atoms: _518  and  _521
REMARK  217  A    between atoms: _521  and  _522
REMARK  218  A    between atoms: _525  and  _527
REMARK  219  A    between atoms: _527  and  _528
REMARK  220  A    between atoms: _527  and  _530
REMARK  221  A    between atoms: _530  and  _531
REMARK  222  A    between atoms: _534  and  _536
REMARK  223  A    between atoms: _536  and  _537
REMARK  224  A    between atoms: _539  and  _541
REMARK  225  A    between atoms: _541  and  _542
REMARK  226  A    between atoms: _541  and  _544
REMARK  227  A    between atoms: _544  and  _545
REMARK  228  A    between atoms: _545  and  _546
REMARK  229  A    between atoms: _546  and  _547
REMARK  230  A    between atoms: _556  and  _558
REMARK  231  A    between atoms: _558  and  _559
REMARK  232  A    between atoms: _558  and  _561
REMARK  233  A    between atoms: _561  and  _562
REMARK                            x       y       z     vdW  Elec       q    Type
REMARK                         _______ _______ _______ _____ _____    ______ ____
ROOT
ATOM      1  CA  LEU A   1      13.373  13.204  27.506  0.00  0.00    +0.133 C 
ENDROOT
BRANCH   1   2
ATOM      2  N   LEU A   1      12.508  14.062  28.303  0.00  0.00    -0.239 NA
ATOM      3  H   LEU A   1      12.378  15.052  28.012  0.00  0.00    +0.142 HD
ENDBRANCH   1   2
BRANCH   1   4
ATOM      4  C   LEU A   1      14.820  13.429  27.950  0.00  0.00    +0.224 C 
ATOM      5  O   LEU A   1      15.227  14.557  28.192  0.00  0.00    -0.287 OA
ENDBRANCH   1   4
BRANCH   1   6
ATOM      6  CB  LEU A   1      13.186  13.478  26.028  0.00  0.00    +0.025 C 
BRANCH   6   7
ATOM      7  CG  LEU A   1      11.734  13.548  25.526  0.00  0.00    +0.002 C 
ATOM      8  CD2 LEU A   1      10.957  12.258  25.779  0.00  0.00    +0.000 C 
ATOM      9  CD1 LEU A   1      11.718  13.905  24.043  0.00  0.00    +0.000 C 
ENDBRANCH   6   7
ENDBRANCH   1   6
TORSDOF 4
REMARK  Name = ../refined-set-2016/2z4o/2z4o_pocket.pdb
REMARK  233 active torsions:
REMARK  status: ('A' for Active; 'I' for Inactive)
REMARK    1  A    between atoms: _1  and  _3
REMARK    2  A    between atoms: _3  and  _4
REMARK    3  A    between atoms: _3  and  _6
REMARK    4  A    between atoms: _6  and  _7
REMARK    5  A    between atoms: _7  and  _8
REMARK    6  A    between atoms: _8  and  _9
REMARK    7  A    between atoms: _11  and  _15
REMARK    8  A    between atoms: _18  and  _20
REMARK    9  A    between atoms: _20  and  _21
REMARK   10  A    between atoms: _20  and  _23
REMARK   11  A    between atoms: _23  and  _24
REMARK   12  A    between atoms: _27  and  _29
REMARK   13  A    between atoms: _29  and  _30
REMARK   14  A    between atoms: _29  and  _32
REMARK   15  A    between atoms: _32  and  _33
REMARK   16  A    between atoms: _36  and  _38
REMARK   17  A    between atoms: _38  and  _39
REMARK   18  A    between atoms: _38  and  _41
REMARK   19  A    between atoms: _41  and  _42
REMARK   20  A    between atoms: _45  and  _47
REMARK   21  A    between atoms: _47  and  _48
REMARK   22  A    between atoms: _47  and  _50
REMARK   23  A    between atoms: _50  and  _51
REMARK   24  A    between atoms: _54  and  _56
REMARK   25  A    between atoms: _56  and  _57
REMARK   26  A    between atoms: _59  and  _61
REMARK   27  A    between atoms: _61  and  _62
REMARK   28  A    between atoms: _65  and  _67
REMARK   29  A    between atoms: _67  and  _68
REMARK   30  A    between atoms: _67  and  _70
REMARK   31  A    between atoms: _70  and  _71
REMARK   32  A    between atoms: _74  and  _76
REMARK   33  A    between atoms: _76  and  _77
REMARK   34  A    between atoms: _76  and  _79
REMARK   35  A    between atoms: _79  and  _80
REMARK   36  A    between atoms: _83  and  _85
REMARK   37  A    between atoms: _85  and  _86
REMARK   38  A    between atoms: _85  and  _88
REMARK   39  A    between atoms: _88  and  _89
REMARK   40  A    between atoms: _92  and  _94
REMARK   41  A    between atoms: _94  and  _95
REMARK   42  A    between atoms: _94  and  _97
REMARK   43  A    between atoms: _100  and  _102
REMARK   44  A    between atoms: _102  and  _103
REMARK   45  A    between atoms: _102  and  _105
REMARK   46  A    between atoms: _105  and  _106
REMARK   47  A    between atoms: _106  and  _107
REMARK   48  A    between atoms: _107  and  _108
REMARK   49  A    between atoms: _108  and  _109
REMARK   50  A    between atoms: _113  and  _115
REMARK   51  A    between atoms: _115  and  _116
REMARK   52  A    between atoms: _115  and  _118
REMARK   53  A    between atoms: _118  and  _119
REMARK   54  A    between atoms: _119  and  _120
REMARK   55  A    between atoms: _122  and  _124
REMARK   56  A    between atoms: _124  and  _125
REMARK   57  A    between atoms: _124  and  _127
REMARK   58  A    between atoms: _127  and  _128
REMARK   59  A    between atoms: _131  and  _133
REMARK   60  A    between atoms: _133  and  _134
REMARK   61  A    between atoms: _136  and  _138
REMARK   62  A    between atoms: _138  and  _139
REMARK   63  A    between atoms: _141  and  _143
REMARK   64  A    between atoms: _143  and  _144
REMARK   65  A    between atoms: _143  and  _146
REMARK   66  A    between atoms: _146  and  _147
REMARK   67  A    between atoms: _150  and  _152
REMARK   68  A    between atoms: _152  and  _153
REMARK   69  A    between atoms: _155  and  _157
REMARK   70  A    between atoms: _157  and  _158
REMARK   71  A    between atoms: _160  and  _162
REMARK   72  A    between atoms: _162  and  _163
REMARK   73  A    between atoms: _162  and  _165
REMARK   74  A    between atoms: _165  and  _166
REMARK   75  A    between atoms: _172  and  _174
REMARK   76  A    between atoms: _174  and  _175
REMARK   77  A    between atoms: _174  and  _177
REMARK   78  A    between atoms: _177  and  _178
REMARK   79  A    between atoms: _181  and  _183
REMARK   80  A    between atoms: _183  and  _184
REMARK   81  A    between atoms: _183  and  _186
REMARK   82  A    between atoms: _189  and  _191
REMARK   83  A    between atoms: _191  and  _192
REMARK   84  A    between atoms: _191  and  _194
REMARK   85  A    between atoms: _194  and  _195
REMARK   86  A    between atoms: _198  and  _200
REMARK   87  A    between atoms: _200  and  _201
REMARK   88  A    between atoms: _200  and  _203
REMARK   89  A    between atoms: _203  and  _204
REMARK   90  A    between atoms: _208  and  _209
REMARK   91  A    between atoms: _214  and  _216
REMARK   92  A    between atoms: _216  and  _217
REMARK   93  A    between atoms: _216  and  _219
REMARK   94  A    between atoms: _222  and  _224
REMARK   95  A    between atoms: _224  and  _225
REMARK   96  A    between atoms: _224  and  _227
REMARK   97  A    between atoms: _227  and  _228
REMARK   98  A    between atoms: _233  and  _235
REMARK   99  A    between atoms: _235  and  _236
REMARK  100  A    between atoms: _235  and  _238
REMARK  101  A    between atoms: _238  and  _239
REMARK  102  A    between atoms: _242  and  _244
REMARK  103  A    between atoms: _244  and  _245
REMARK  104  A    between atoms: _244  and  _247
REMARK  105  A    between atoms: _247  and  _248
REMARK  106  A    between atoms: _251  and  _253
REMARK  107  A    between atoms: _253  and  _254
REMARK  108  A    between atoms: _256  and  _258
REMARK  109  A    between atoms: _258  and  _259
REMARK  110  A    between atoms: _258  and  _261
REMARK  111  A    between atoms: _261  and  _262
REMARK  112  A    between atoms: _262  and  _263
REMARK  113  A    between atoms: _263  and  _264
REMARK  114  A    between atoms: _273  and  _275
REMARK  115  A    between atoms: _275  and  _276
REMARK  116  A    between atoms: _275  and  _278
REMARK  117  A    between atoms: _278  and  _279
REMARK  118  A    between atoms: _284  and  _286
REMARK  119  A    between atoms: _286  and  _287
REMARK  120  A    between atoms: _286  and  _289
REMARK  121  A    between atoms: _289  and  _290
REMARK  122  A    between atoms: _290  and  _291
REMARK  123  A    between atoms: _291  and  _292
REMARK  124  A    between atoms: _301  and  _303
REMARK  125  A    between atoms: _303  and  _304
REMARK  126  A    between atoms: _303  and  _306
REMARK  127  A    between atoms: _306  and  _307
REMARK  128  A    between atoms: _310  and  _312
REMARK  129  A    between atoms: _312  and  _313
REMARK  130  A    between atoms: _312  and  _315
REMARK  131  A    between atoms: _315  and  _316
REMARK  132  A    between atoms: _319  and  _321
REMARK  133  A    between atoms: _321  and  _322
REMARK  134  A    between atoms: _321  and  _324
REMARK  135  A    between atoms: _324  and  _325
REMARK  136  A    between atoms: _328  and  _330
REMARK  137  A    between atoms: _330  and  _331
REMARK  138  A    between atoms: _330  and  _333
REMARK  139  A    between atoms: _333  and  _334
REMARK  140  A    between atoms: _337  and  _339
REMARK  141  A    between atoms: _339  and  _340
REMARK  142  A    between atoms: _342  and  _344
REMARK  143  A    between atoms: _344  and  _345
REMARK  144  A    between atoms: _348  and  _350
REMARK  145  A    between atoms: _350  and  _351
REMARK  146  A    between atoms: _350  and  _353
REMARK  147  A    between atoms: _353  and  _354
REMARK  148  A    between atoms: _357  and  _359
REMARK  149  A    between atoms: _359  and  _360
REMARK  150  A    between atoms: _359  and  _362
REMARK  151  A    between atoms: _362  and  _363
REMARK  152  A    between atoms: _366  and  _368
REMARK  153  A    between atoms: _368  and  _369
REMARK  154  A    between atoms: _368  and  _371
REMARK  155  A    between atoms: _371  and  _372
REMARK  156  A    between atoms: _375  and  _377
REMARK  157  A    between atoms: _377  and  _378
REMARK  158  A    between atoms: _377  and  _380
REMARK  159  A    between atoms: _383  and  _385
REMARK  160  A    between atoms: _385  and  _386
REMARK  161  A    between atoms: _385  and  _388
REMARK  162  A    between atoms: _388  and  _389
REMARK  163  A    between atoms: _389  and  _390
REMARK  164  A    between atoms: _390  and  _391
REMARK  165  A    between atoms: _391  and  _392
REMARK  166  A    between atoms: _396  and  _398
REMARK  167  A    between atoms: _398  and  _399
REMARK  168  A    between atoms: _398  and  _401
REMARK  169  A    between atoms: _401  and  _402
REMARK  170  A    between atoms: _402  and  _403
REMARK  171  A    between atoms: _405  and  _407
REMARK  172  A    between atoms: _407  and  _408
REMARK  173  A    between atoms: _407  and  _410
REMARK  174  A    between atoms: _410  and  _411
REMARK  175  A    between atoms: _414  and  _416
REMARK  176  A    between atoms: _416  and  _417
REMARK  177  A    between atoms: _419  and  _421
REMARK  178  A    between atoms: _421  and  _422
REMARK  179  A    between atoms: _424  and  _426
REMARK  180  A    between atoms: _426  and  _427
REMARK  181  A    between atoms: _426  and  _429
REMARK  182  A    between atoms: _429  and  _430
REMARK  183  A    between atoms: _433  and  _435
REMARK  184  A    between atoms: _435  and  _436
REMARK  185  A    between atoms: _438  and  _440
REMARK  186  A    between atoms: _440  and  _441
REMARK  187  A    between atoms: _443  and  _445
REMARK  188  A    between atoms: _445  and  _446
REMARK  189  A    between atoms: _445  and  _448
REMARK  190  A    between atoms: _448  and  _449
REMARK  191  A    between atoms: _455  and  _457
REMARK  192  A    between atoms: _457  and  _458
REMARK  193  A    between atoms: _457  and  _460
REMARK  194  A    between atoms: _460  and  _461
REMARK  195  A    between atoms: _464  and  _466
REMARK  196  A    between atoms: _466  and  _467
REMARK  197  A    between atoms: _466  and  _469
REMARK  198  A    between atoms: _472  and  _474
REMARK  199  A    between atoms: _474  and  _475
REMARK  200  A    between atoms: _474  and  _477
REMARK  201  A    between atoms: _477  and  _478
REMARK  202  A    between atoms: _481  and  _483
REMARK  203  A    between atoms: _483  and  _484
REMARK  204  A    between atoms: _483  and  _486
REMARK  205  A    between atoms: _486  and  _487
REMARK  206  A    between atoms: _491  and  _492
REMARK  207  A    between atoms: _497  and  _499
REMARK  208  A    between atoms: _499  and  _500
REMARK  209  A    between atoms: _499  and  _502
REMARK  210  A    between atoms: _505  and  _507
REMARK  211  A    between atoms: _507  and  _508
REMARK  212  A    between atoms: _507  and  _510
REMARK  213  A    between atoms: _510  and  _511
REMARK  214  A    between atoms: _516  and  _518
REMARK  215  A    between atoms: _518  and  _519
REMARK  216  A    between atoms: _518  and  _521
REMARK  217  A    between atoms: _521  and  _522
REMARK  218  A    between atoms: _525  and  _527
REMARK  219  A    between atoms: _527  and  _528
REMARK  220  A    between atoms: _527  and  _530
REMARK  221  A    between atoms: _530  and  _531
REMARK  222  A    between atoms: _534  and  _536
REMARK  223  A    between atoms: _536  and  _537
REMARK  224  A    between atoms: _539  and  _541
REMARK  225  A    between atoms: _541  and  _542
REMARK  226  A    between atoms: _541  and  _544
REMARK  227  A    between atoms: _544  and  _545
REMARK  228  A    between atoms: _545  and  _546
REMARK  229  A    between atoms: _546  and  _547
REMARK  230  A    between atoms: _556  and  _558
REMARK  231  A    between atoms: _558  and  _559
REMARK  232  A    between atoms: _558  and  _561
REMARK  233  A    between atoms: _561  and  _562
REMARK                            x       y       z     vdW  Elec       q    Type
REMARK                         _______ _______ _______ _____ _____    ______ ____
ROOT
ATOM      1  C   ILE A   5      14.439  22.224  26.871  0.00  0.00    +0.241 C 
ATOM      2  N   ILE A   6      13.725  23.292  27.179  0.00  0.00    -0.297 N 
ATOM      3  H   ILE A   6      14.165  24.230  27.090  0.00  0.00    +0.150 HD
ATOM      4  O   ILE A   5      14.033  21.088  27.081  0.00  0.00    -0.273 OA
ENDROOT
BRANCH   1   5
ATOM      5  CA  ILE A   5      15.793  22.485  26.252  0.00  0.00    +0.149 C 
BRANCH   5   8
ATOM      6  C   ASN A   4      17.886  22.348  27.447  0.00  0.00    +0.241 C 
ATOM      7  O   ASN A   4      18.070  23.565  27.428  0.00  0.00    -0.273 OA
ATOM      8  N   ILE A   5      16.832  21.730  26.934  0.00  0.00    -0.297 N 
ATOM      9  H   ILE A   5      16.747  20.697  27.020  0.00  0.00    +0.150 HD
BRANCH   6  10
ATOM     10  CA  ASN A   4      18.920  21.442  28.095  0.00  0.00    +0.158 C 
BRANCH  10  12
ATOM     11  C   VAL A   3      20.503  21.515  26.288  0.00  0.00    +0.241 C 
ATOM     12  N   ASN A   4      20.222  21.788  27.553  0.00  0.00    -0.297 N 
ATOM     13  H   ASN A   4      20.932  22.249  28.157  0.00  0.00    +0.150 HD
ATOM     14  O   VAL A   3      19.764  20.879  25.546  0.00  0.00    -0.273 OA
BRANCH  11  15
ATOM     15  CA  VAL A   3      21.836  22.052  25.769  0.00  0.00    +0.149 C 
BRANCH  15  18
ATOM     16  C   PRO A   2      23.525  20.912  24.406  0.00  0.00    +0.241 C 
ATOM     17  O   PRO A   2      24.474  21.419  24.972  0.00  0.00    -0.273 OA
ATOM     18  N   VAL A   3      22.280  21.193  24.703  0.00  0.00    -0.297 N 
ATOM     19  H   VAL A   3      21.544  20.754  24.113  0.00  0.00    +0.150 HD
BRANCH  16  23
ATOM     20  C   THR A   1      22.315  18.017  23.888  0.00  0.00    +0.244 C 
ATOM     21  O   THR A   1      22.938  17.902  24.950  0.00  0.00    -0.273 OA
ATOM     22  N   PRO A   2      22.647  18.966  23.020  0.00  0.00    -0.272 N 
ATOM     23  CA  PRO A   2      23.751  19.904  23.284  0.00  0.00    +0.152 C 
ATOM     24  CB  PRO A   2      23.825  20.705  21.974  0.00  0.00    +0.031 C 
ATOM     25  CG  PRO A   2      22.465  20.602  21.375  0.00  0.00    +0.024 C 
ATOM     26  CD  PRO A   2      21.996  19.207  21.711  0.00  0.00    +0.094 C 
BRANCH  20  27
ATOM     27  CA  THR A   1      21.173  17.056  23.558  0.00  0.00    +0.172 C 
BRANCH  27  28
ATOM     28  N   THR A   1      21.480  15.741  24.085  0.00  0.00    -0.236 NA
ATOM     29  H   THR A   1      21.126  15.455  25.020  0.00  0.00    +0.142 HD
ENDBRANCH  27  28
BRANCH  27  30
ATOM     30  CB  THR A   1      19.824  17.583  24.090  0.00  0.00    +0.135 C 
ATOM     31  CG2 THR A   1      19.761  17.615  25.599  0.00  0.00    +0.034 C 
BRANCH  30  32
ATOM     32  OG1 THR A   1      19.687  18.942  23.644  0.00  0.00    -0.383 OA
ATOM     33  HG1 THR A   1      20.436  19.482  24.001  0.00  0.00    +0.210 HD
ENDBRANCH  30  32
ENDBRANCH  27  30
ENDBRANCH  20  27
ENDBRANCH  16  23
ENDBRANCH  15  18
BRANCH  15  34
ATOM     34  CB  VAL A   3      21.628  23.522  25.369  0.00  0.00    +0.027 C 
ATOM     35  CG2 VAL A   3      22.914  24.125  24.814  0.00  0.00    +0.002 C 
ATOM     36  CG1 VAL A   3      20.483  23.606  24.374  0.00  0.00    +0.002 C 
ENDBRANCH  15  34
ENDBRANCH  11  15
ENDBRANCH  10  12
BRANCH  10  37
ATOM     37  CB  ASN A   4      18.900  21.589  29.599  0.00  0.00    +0.114 C 
BRANCH  37  38
ATOM     38  CG  ASN A   4      19.878  20.684  30.309  0.00  0.00    +0.222 C 
ATOM     39  ND2 ASN A   4      20.441  21.196  31.399  0.00  0.00    -0.329 N 
ATOM     40 HD21 ASN A   4      21.125  20.634  31.944  0.00  0.00    +0.145 HD
ATOM     41 HD22 ASN A   4      20.197  22.159  31.707  0.00  0.00    +0.145 HD
ATOM     42  OD1 ASN A   4      20.129  19.541  29.892  0.00  0.00    -0.275 OA
ENDBRANCH  37  38
ENDBRANCH  10  37
ENDBRANCH   6  10
ENDBRANCH   5   8
BRANCH   5  43
ATOM     43  CB  ILE A   5      15.772  22.237  24.718  0.00  0.00    +0.027 C 
ATOM     44  CG2 ILE A   5      17.070  22.834  24.142  0.00  0.00    +0.002 C 
BRANCH  43  45
ATOM     45  CG1 ILE A   5      15.586  20.825  24.221  0.00  0.00    +0.002 C 
ATOM     46  CD1 ILE A   5      15.563  20.734  22.704  0.00  0.00    +0.000 C 
ENDBRANCH  43  45
ENDBRANCH   5  43
ENDBRANCH   1   5
BRANCH   2  47
ATOM     47  CA  ILE A   6      12.357  23.208  27.635  0.00  0.00    +0.149 C 
BRANCH  47  48
ATOM     48  C   ILE A   6      11.460  23.430  26.432  0.00  0.00    +0.241 C 
ATOM     49  N   GLY A   7      10.722  22.404  26.055  0.00  0.00    -0.295 N 
ATOM     50  H   GLY A   7      10.742  21.532  26.622  0.00  0.00    +0.150 HD
ATOM     51  O   ILE A   6      11.467  24.544  25.867  0.00  0.00    -0.273 OA
BRANCH  49  52
ATOM     52  CA  GLY A   7       9.889  22.457  24.880  0.00  0.00    +0.176 C 
BRANCH  52  53
ATOM     53  C   GLY A   7       8.452  22.751  25.194  0.00  0.00    +0.243 C 
ATOM     54  O   GLY A   7       8.105  22.973  26.344  0.00  0.00    -0.273 OA
ATOM     55  N   ARG A   8       7.621  22.752  24.148  0.00  0.00    -0.297 N 
ATOM     56  H   ARG A   8       7.949  22.412  23.221  0.00  0.00    +0.150 HD
BRANCH  55  57
ATOM     57  CA  ARG A   8       6.252  23.232  24.309  0.00  0.00    +0.149 C 
BRANCH  57  58
ATOM     58  C   ARG A   8       5.454  22.410  25.304  0.00  0.00    +0.241 C 
ATOM     59  O   ARG A   8       4.532  22.944  25.919  0.00  0.00    -0.273 OA
ATOM     60  N   ASN A   9       5.787  21.128  25.477  0.00  0.00    -0.298 N 
ATOM     61  H   ASN A   9       6.579  20.700  24.957  0.00  0.00    +0.150 HD
BRANCH  60  62
ATOM     62  CA  ASN A   9       4.993  20.351  26.427  0.00  0.00    +0.146 C 
BRANCH  62  63
ATOM     63  C   ASN A   9       5.066  20.932  27.837  0.00  0.00    +0.227 C 
ATOM     64  O   ASN A   9       4.081  20.778  28.573  0.00  0.00    -0.286 OA
ENDBRANCH  62  63
BRANCH  62  65
ATOM     65  CB  ASN A   9       5.455  18.906  26.442  0.00  0.00    +0.112 C 
BRANCH  65  66
ATOM     66  CG  ASN A   9       6.792  18.720  27.115  0.00  0.00    +0.222 C 
ATOM     67  ND2 ASN A   9       6.768  17.809  28.098  0.00  0.00    -0.329 N 
ATOM     68 HD21 ASN A   9       7.636  17.593  28.628  0.00  0.00    +0.145 HD
ATOM     69 HD22 ASN A   9       5.881  17.318  28.331  0.00  0.00    +0.145 HD
ATOM     70  OD1 ASN A   9       7.770  19.373  26.737  0.00  0.00    -0.275 OA
ENDBRANCH  65  66
ENDBRANCH  62  65
ENDBRANCH  60  62
ENDBRANCH  57  58
BRANCH  57  71
ATOM     71  CB  ARG A   8       5.558  23.251  22.930  0.00  0.00    +0.033 C 
BRANCH  71  72
ATOM     72  CG  ARG A   8       6.193  24.271  21.999  0.00  0.00    +0.045 C 
BRANCH  72  73
ATOM     73  CD  ARG A   8       5.405  24.487  20.712  0.00  0.00    +0.174 C 
BRANCH  73  74
ATOM     74  NE  ARG A   8       5.423  23.240  19.956  0.00  0.00    -0.265 N 
ATOM     75  CZ  ARG A   8       4.466  22.328  19.942  0.00  0.00    +0.342 C 
ATOM     76  NH2 ARG A   8       3.330  22.422  20.619  0.00  0.00    -0.292 N 
ATOM     77 HH21 ARG A   8       3.145  23.256  21.212  0.00  0.00    +0.255 HD
ATOM     78 HH22 ARG A   8       2.623  21.661  20.557  0.00  0.00    +0.255 HD
ATOM     79  NH1 ARG A   8       4.653  21.232  19.190  0.00  0.00    -0.292 N 
ATOM     80 HH11 ARG A   8       3.921  20.494  19.155  0.00  0.00    +0.255 HD
ATOM     81 HH12 ARG A   8       5.530  21.121  18.642  0.00  0.00    +0.255 HD
ATOM     82  HE  ARG A   8       6.265  23.051  19.375  0.00  0.00    +0.259 HD
ENDBRANCH  73  74
ENDBRANCH  72  73
ENDBRANCH  71  72
ENDBRANCH  57  71
ENDBRANCH  55  57
ENDBRANCH  52  53
ENDBRANCH  49  52
ENDBRANCH  47  48
BRANCH  47  83
ATOM     83  CB  ILE A   6      12.071  24.245  28.721  0.00  0.00    +0.027 C 
ATOM     84  CG2 ILE A   6      10.639  24.117  29.228  0.00  0.00    +0.002 C 
BRANCH  83  85
ATOM     85  CG1 ILE A   6      13.096  24.204  29.866  0.00  0.00    +0.002 C 
ATOM     86  CD1 ILE A   6      13.187  22.852  30.530  0.00  0.00    +0.000 C 
ENDBRANCH  83  85
ENDBRANCH  47  83
ENDBRANCH   2  47
TORSDOF 32
REMARK  Name = ../refined-set-2016/2z4o/2z4o_pocket.pdb
REMARK  233 active torsions:
REMARK  status: ('A' for Active; 'I' for Inactive)
REMARK    1  A    between atoms: _1  and  _3
REMARK    2  A    between atoms: _3  and  _4
REMARK    3  A    between atoms: _3  and  _6
REMARK    4  A    between atoms: _6  and  _7
REMARK    5  A    between atoms: _7  and  _8
REMARK    6  A    between atoms: _8  and  _9
REMARK    7  A    between atoms: _11  and  _15
REMARK    8  A    between atoms: _18  and  _20
REMARK    9  A    between atoms: _20  and  _21
REMARK   10  A    between atoms: _20  and  _23
REMARK   11  A    between atoms: _23  and  _24
REMARK   12  A    between atoms: _27  and  _29
REMARK   13  A    between atoms: _29  and  _30
REMARK   14  A    between atoms: _29  and  _32
REMARK   15  A    between atoms: _32  and  _33
REMARK   16  A    between atoms: _36  and  _38
REMARK   17  A    between atoms: _38  and  _39
REMARK   18  A    between atoms: _38  and  _41
REMARK   19  A    between atoms: _41  and  _42
REMARK   20  A    between atoms: _45  and  _47
REMARK   21  A    between atoms: _47  and  _48
REMARK   22  A    between atoms: _47  and  _50
REMARK   23  A    between atoms: _50  and  _51
REMARK   24  A    between atoms: _54  and  _56
REMARK   25  A    between atoms: _56  and  _57
REMARK   26  A    between atoms: _59  and  _61
REMARK   27  A    between atoms: _61  and  _62
REMARK   28  A    between atoms: _65  and  _67
REMARK   29  A    between atoms: _67  and  _68
REMARK   30  A    between atoms: _67  and  _70
REMARK   31  A    between atoms: _70  and  _71
REMARK   32  A    between atoms: _74  and  _76
REMARK   33  A    between atoms: _76  and  _77
REMARK   34  A    between atoms: _76  and  _79
REMARK   35  A    between atoms: _79  and  _80
REMARK   36  A    between atoms: _83  and  _85
REMARK   37  A    between atoms: _85  and  _86
REMARK   38  A    between atoms: _85  and  _88
REMARK   39  A    between atoms: _88  and  _89
REMARK   40  A    between atoms: _92  and  _94
REMARK   41  A    between atoms: _94  and  _95
REMARK   42  A    between atoms: _94  and  _97
REMARK   43  A    between atoms: _100  and  _102
REMARK   44  A    between atoms: _102  and  _103
REMARK   45  A    between atoms: _102  and  _105
REMARK   46  A    between atoms: _105  and  _106
REMARK   47  A    between atoms: _106  and  _107
REMARK   48  A    between atoms: _107  and  _108
REMARK   49  A    between atoms: _108  and  _109
REMARK   50  A    between atoms: _113  and  _115
REMARK   51  A    between atoms: _115  and  _116
REMARK   52  A    between atoms: _115  and  _118
REMARK   53  A    between atoms: _118  and  _119
REMARK   54  A    between atoms: _119  and  _120
REMARK   55  A    between atoms: _122  and  _124
REMARK   56  A    between atoms: _124  and  _125
REMARK   57  A    between atoms: _124  and  _127
REMARK   58  A    between atoms: _127  and  _128
REMARK   59  A    between atoms: _131  and  _133
REMARK   60  A    between atoms: _133  and  _134
REMARK   61  A    between atoms: _136  and  _138
REMARK   62  A    between atoms: _138  and  _139
REMARK   63  A    between atoms: _141  and  _143
REMARK   64  A    between atoms: _143  and  _144
REMARK   65  A    between atoms: _143  and  _146
REMARK   66  A    between atoms: _146  and  _147
REMARK   67  A    between atoms: _150  and  _152
REMARK   68  A    between atoms: _152  and  _153
REMARK   69  A    between atoms: _155  and  _157
REMARK   70  A    between atoms: _157  and  _158
REMARK   71  A    between atoms: _160  and  _162
REMARK   72  A    between atoms: _162  and  _163
REMARK   73  A    between atoms: _162  and  _165
REMARK   74  A    between atoms: _165  and  _166
REMARK   75  A    between atoms: _172  and  _174
REMARK   76  A    between atoms: _174  and  _175
REMARK   77  A    between atoms: _174  and  _177
REMARK   78  A    between atoms: _177  and  _178
REMARK   79  A    between atoms: _181  and  _183
REMARK   80  A    between atoms: _183  and  _184
REMARK   81  A    between atoms: _183  and  _186
REMARK   82  A    between atoms: _189  and  _191
REMARK   83  A    between atoms: _191  and  _192
REMARK   84  A    between atoms: _191  and  _194
REMARK   85  A    between atoms: _194  and  _195
REMARK   86  A    between atoms: _198  and  _200
REMARK   87  A    between atoms: _200  and  _201
REMARK   88  A    between atoms: _200  and  _203
REMARK   89  A    between atoms: _203  and  _204
REMARK   90  A    between atoms: _208  and  _209
REMARK   91  A    between atoms: _214  and  _216
REMARK   92  A    between atoms: _216  and  _217
REMARK   93  A    between atoms: _216  and  _219
REMARK   94  A    between atoms: _222  and  _224
REMARK   95  A    between atoms: _224  and  _225
REMARK   96  A    between atoms: _224  and  _227
REMARK   97  A    between atoms: _227  and  _228
REMARK   98  A    between atoms: _233  and  _235
REMARK   99  A    between atoms: _235  and  _236
REMARK  100  A    between atoms: _235  and  _238
REMARK  101  A    between atoms: _238  and  _239
REMARK  102  A    between atoms: _242  and  _244
REMARK  103  A    between atoms: _244  and  _245
REMARK  104  A    between atoms: _244  and  _247
REMARK  105  A    between atoms: _247  and  _248
REMARK  106  A    between atoms: _251  and  _253
REMARK  107  A    between atoms: _253  and  _254
REMARK  108  A    between atoms: _256  and  _258
REMARK  109  A    between atoms: _258  and  _259
REMARK  110  A    between atoms: _258  and  _261
REMARK  111  A    between atoms: _261  and  _262
REMARK  112  A    between atoms: _262  and  _263
REMARK  113  A    between atoms: _263  and  _264
REMARK  114  A    between atoms: _273  and  _275
REMARK  115  A    between atoms: _275  and  _276
REMARK  116  A    between atoms: _275  and  _278
REMARK  117  A    between atoms: _278  and  _279
REMARK  118  A    between atoms: _284  and  _286
REMARK  119  A    between atoms: _286  and  _287
REMARK  120  A    between atoms: _286  and  _289
REMARK  121  A    between atoms: _289  and  _290
REMARK  122  A    between atoms: _290  and  _291
REMARK  123  A    between atoms: _291  and  _292
REMARK  124  A    between atoms: _301  and  _303
REMARK  125  A    between atoms: _303  and  _304
REMARK  126  A    between atoms: _303  and  _306
REMARK  127  A    between atoms: _306  and  _307
REMARK  128  A    between atoms: _310  and  _312
REMARK  129  A    between atoms: _312  and  _313
REMARK  130  A    between atoms: _312  and  _315
REMARK  131  A    between atoms: _315  and  _316
REMARK  132  A    between atoms: _319  and  _321
REMARK  133  A    between atoms: _321  and  _322
REMARK  134  A    between atoms: _321  and  _324
REMARK  135  A    between atoms: _324  and  _325
REMARK  136  A    between atoms: _328  and  _330
REMARK  137  A    between atoms: _330  and  _331
REMARK  138  A    between atoms: _330  and  _333
REMARK  139  A    between atoms: _333  and  _334
REMARK  140  A    between atoms: _337  and  _339
REMARK  141  A    between atoms: _339  and  _340
REMARK  142  A    between atoms: _342  and  _344
REMARK  143  A    between atoms: _344  and  _345
REMARK  144  A    between atoms: _348  and  _350
REMARK  145  A    between atoms: _350  and  _351
REMARK  146  A    between atoms: _350  and  _353
REMARK  147  A    between atoms: _353  and  _354
REMARK  148  A    between atoms: _357  and  _359
REMARK  149  A    between atoms: _359  and  _360
REMARK  150  A    between atoms: _359  and  _362
REMARK  151  A    between atoms: _362  and  _363
REMARK  152  A    between atoms: _366  and  _368
REMARK  153  A    between atoms: _368  and  _369
REMARK  154  A    between atoms: _368  and  _371
REMARK  155  A    between atoms: _371  and  _372
REMARK  156  A    between atoms: _375  and  _377
REMARK  157  A    between atoms: _377  and  _378
REMARK  158  A    between atoms: _377  and  _380
REMARK  159  A    between atoms: _383  and  _385
REMARK  160  A    between atoms: _385  and  _386
REMARK  161  A    between atoms: _385  and  _388
REMARK  162  A    between atoms: _388  and  _389
REMARK  163  A    between atoms: _389  and  _390
REMARK  164  A    between atoms: _390  and  _391
REMARK  165  A    between atoms: _391  and  _392
REMARK  166  A    between atoms: _396  and  _398
REMARK  167  A    between atoms: _398  and  _399
REMARK  168  A    between atoms: _398  and  _401
REMARK  169  A    between atoms: _401  and  _402
REMARK  170  A    between atoms: _402  and  _403
REMARK  171  A    between atoms: _405  and  _407
REMARK  172  A    between atoms: _407  and  _408
REMARK  173  A    between atoms: _407  and  _410
REMARK  174  A    between atoms: _410  and  _411
REMARK  175  A    between atoms: _414  and  _416
REMARK  176  A    between atoms: _416  and  _417
REMARK  177  A    between atoms: _419  and  _421
REMARK  178  A    between atoms: _421  and  _422
REMARK  179  A    between atoms: _424  and  _426
REMARK  180  A    between atoms: _426  and  _427
REMARK  181  A    between atoms: _426  and  _429
REMARK  182  A    between atoms: _429  and  _430
REMARK  183  A    between atoms: _433  and  _435
REMARK  184  A    between atoms: _435  and  _436
REMARK  185  A    between atoms: _438  and  _440
REMARK  186  A    between atoms: _440  and  _441
REMARK  187  A    between atoms: _443  and  _445
REMARK  188  A    between atoms: _445  and  _446
REMARK  189  A    between atoms: _445  and  _448
REMARK  190  A    between atoms: _448  and  _449
REMARK  191  A    between atoms: _455  and  _457
REMARK  192  A    between atoms: _457  and  _458
REMARK  193  A    between atoms: _457  and  _460
REMARK  194  A    between atoms: _460  and  _461
REMARK  195  A    between atoms: _464  and  _466
REMARK  196  A    between atoms: _466  and  _467
REMARK  197  A    between atoms: _466  and  _469
REMARK  198  A    between atoms: _472  and  _474
REMARK  199  A    between atoms: _474  and  _475
REMARK  200  A    between atoms: _474  and  _477
REMARK  201  A    between atoms: _477  and  _478
REMARK  202  A    between atoms: _481  and  _483
REMARK  203  A    between atoms: _483  and  _484
REMARK  204  A    between atoms: _483  and  _486
REMARK  205  A    between atoms: _486  and  _487
REMARK  206  A    between atoms: _491  and  _492
REMARK  207  A    between atoms: _497  and  _499
REMARK  208  A    between atoms: _499  and  _500
REMARK  209  A    between atoms: _499  and  _502
REMARK  210  A    between atoms: _505  and  _507
REMARK  211  A    between atoms: _507  and  _508
REMARK  212  A    between atoms: _507  and  _510
REMARK  213  A    between atoms: _510  and  _511
REMARK  214  A    between atoms: _516  and  _518
REMARK  215  A    between atoms: _518  and  _519
REMARK  216  A    between atoms: _518  and  _521
REMARK  217  A    between atoms: _521  and  _522
REMARK  218  A    between atoms: _525  and  _527
REMARK  219  A    between atoms: _527  and  _528
REMARK  220  A    between atoms: _527  and  _530
REMARK  221  A    between atoms: _530  and  _531
REMARK  222  A    between atoms: _534  and  _536
REMARK  223  A    between atoms: _536  and  _537
REMARK  224  A    between atoms: _539  and  _541
REMARK  225  A    between atoms: _541  and  _542
REMARK  226  A    between atoms: _541  and  _544
REMARK  227  A    between atoms: _544  and  _545
REMARK  228  A    between atoms: _545  and  _546
REMARK  229  A    between atoms: _546  and  _547
REMARK  230  A    between atoms: _556  and  _558
REMARK  231  A    between atoms: _558  and  _559
REMARK  232  A    between atoms: _558  and  _561
REMARK  233  A    between atoms: _561  and  _562
REMARK                            x       y       z     vdW  Elec       q    Type
REMARK                         _______ _______ _______ _____ _____    ______ ____
ROOT
ATOM      1  O   HOH     1      18.256  30.728  21.663  0.00  0.00    +0.000 OA
ENDROOT
TORSDOF 0
REMARK  Name = ../refined-set-2016/2z4o/2z4o_pocket.pdb
REMARK  233 active torsions:
REMARK  status: ('A' for Active; 'I' for Inactive)
REMARK    1  A    between atoms: _1  and  _3
REMARK    2  A    between atoms: _3  and  _4
REMARK    3  A    between atoms: _3  and  _6
REMARK    4  A    between atoms: _6  and  _7
REMARK    5  A    between atoms: _7  and  _8
REMARK    6  A    between atoms: _8  and  _9
REMARK    7  A    between atoms: _11  and  _15
REMARK    8  A    between atoms: _18  and  _20
REMARK    9  A    between atoms: _20  and  _21
REMARK   10  A    between atoms: _20  and  _23
REMARK   11  A    between atoms: _23  and  _24
REMARK   12  A    between atoms: _27  and  _29
REMARK   13  A    between atoms: _29  and  _30
REMARK   14  A    between atoms: _29  and  _32
REMARK   15  A    between atoms: _32  and  _33
REMARK   16  A    between atoms: _36  and  _38
REMARK   17  A    between atoms: _38  and  _39
REMARK   18  A    between atoms: _38  and  _41
REMARK   19  A    between atoms: _41  and  _42
REMARK   20  A    between atoms: _45  and  _47
REMARK   21  A    between atoms: _47  and  _48
REMARK   22  A    between atoms: _47  and  _50
REMARK   23  A    between atoms: _50  and  _51
REMARK   24  A    between atoms: _54  and  _56
REMARK   25  A    between atoms: _56  and  _57
REMARK   26  A    between atoms: _59  and  _61
REMARK   27  A    between atoms: _61  and  _62
REMARK   28  A    between atoms: _65  and  _67
REMARK   29  A    between atoms: _67  and  _68
REMARK   30  A    between atoms: _67  and  _70
REMARK   31  A    between atoms: _70  and  _71
REMARK   32  A    between atoms: _74  and  _76
REMARK   33  A    between atoms: _76  and  _77
REMARK   34  A    between atoms: _76  and  _79
REMARK   35  A    between atoms: _79  and  _80
REMARK   36  A    between atoms: _83  and  _85
REMARK   37  A    between atoms: _85  and  _86
REMARK   38  A    between atoms: _85  and  _88
REMARK   39  A    between atoms: _88  and  _89
REMARK   40  A    between atoms: _92  and  _94
REMARK   41  A    between atoms: _94  and  _95
REMARK   42  A    between atoms: _94  and  _97
REMARK   43  A    between atoms: _100  and  _102
REMARK   44  A    between atoms: _102  and  _103
REMARK   45  A    between atoms: _102  and  _105
REMARK   46  A    between atoms: _105  and  _106
REMARK   47  A    between atoms: _106  and  _107
REMARK   48  A    between atoms: _107  and  _108
REMARK   49  A    between atoms: _108  and  _109
REMARK   50  A    between atoms: _113  and  _115
REMARK   51  A    between atoms: _115  and  _116
REMARK   52  A    between atoms: _115  and  _118
REMARK   53  A    between atoms: _118  and  _119
REMARK   54  A    between atoms: _119  and  _120
REMARK   55  A    between atoms: _122  and  _124
REMARK   56  A    between atoms: _124  and  _125
REMARK   57  A    between atoms: _124  and  _127
REMARK   58  A    between atoms: _127  and  _128
REMARK   59  A    between atoms: _131  and  _133
REMARK   60  A    between atoms: _133  and  _134
REMARK   61  A    between atoms: _136  and  _138
REMARK   62  A    between atoms: _138  and  _139
REMARK   63  A    between atoms: _141  and  _143
REMARK   64  A    between atoms: _143  and  _144
REMARK   65  A    between atoms: _143  and  _146
REMARK   66  A    between atoms: _146  and  _147
REMARK   67  A    between atoms: _150  and  _152
REMARK   68  A    between atoms: _152  and  _153
REMARK   69  A    between atoms: _155  and  _157
REMARK   70  A    between atoms: _157  and  _158
REMARK   71  A    between atoms: _160  and  _162
REMARK   72  A    between atoms: _162  and  _163
REMARK   73  A    between atoms: _162  and  _165
REMARK   74  A    between atoms: _165  and  _166
REMARK   75  A    between atoms: _172  and  _174
REMARK   76  A    between atoms: _174  and  _175
REMARK   77  A    between atoms: _174  and  _177
REMARK   78  A    between atoms: _177  and  _178
REMARK   79  A    between atoms: _181  and  _183
REMARK   80  A    between atoms: _183  and  _184
REMARK   81  A    between atoms: _183  and  _186
REMARK   82  A    between atoms: _189  and  _191
REMARK   83  A    between atoms: _191  and  _192
REMARK   84  A    between atoms: _191  and  _194
REMARK   85  A    between atoms: _194  and  _195
REMARK   86  A    between atoms: _198  and  _200
REMARK   87  A    between atoms: _200  and  _201
REMARK   88  A    between atoms: _200  and  _203
REMARK   89  A    between atoms: _203  and  _204
REMARK   90  A    between atoms: _208  and  _209
REMARK   91  A    between atoms: _214  and  _216
REMARK   92  A    between atoms: _216  and  _217
REMARK   93  A    between atoms: _216  and  _219
REMARK   94  A    between atoms: _222  and  _224
REMARK   95  A    between atoms: _224  and  _225
REMARK   96  A    between atoms: _224  and  _227
REMARK   97  A    between atoms: _227  and  _228
REMARK   98  A    between atoms: _233  and  _235
REMARK   99  A    between atoms: _235  and  _236
REMARK  100  A    between atoms: _235  and  _238
REMARK  101  A    between atoms: _238  and  _239
REMARK  102  A    between atoms: _242  and  _244
REMARK  103  A    between atoms: _244  and  _245
REMARK  104  A    between atoms: _244  and  _247
REMARK  105  A    between atoms: _247  and  _248
REMARK  106  A    between atoms: _251  and  _253
REMARK  107  A    between atoms: _253  and  _254
REMARK  108  A    between atoms: _256  and  _258
REMARK  109  A    between atoms: _258  and  _259
REMARK  110  A    between atoms: _258  and  _261
REMARK  111  A    between atoms: _261  and  _262
REMARK  112  A    between atoms: _262  and  _263
REMARK  113  A    between atoms: _263  and  _264
REMARK  114  A    between atoms: _273  and  _275
REMARK  115  A    between atoms: _275  and  _276
REMARK  116  A    between atoms: _275  and  _278
REMARK  117  A    between atoms: _278  and  _279
REMARK  118  A    between atoms: _284  and  _286
REMARK  119  A    between atoms: _286  and  _287
REMARK  120  A    between atoms: _286  and  _289
REMARK  121  A    between atoms: _289  and  _290
REMARK  122  A    between atoms: _290  and  _291
REMARK  123  A    between atoms: _291  and  _292
REMARK  124  A    between atoms: _301  and  _303
REMARK  125  A    between atoms: _303  and  _304
REMARK  126  A    between atoms: _303  and  _306
REMARK  127  A    between atoms: _306  and  _307
REMARK  128  A    between atoms: _310  and  _312
REMARK  129  A    between atoms: _312  and  _313
REMARK  130  A    between atoms: _312  and  _315
REMARK  131  A    between atoms: _315  and  _316
REMARK  132  A    between atoms: _319  and  _321
REMARK  133  A    between atoms: _321  and  _322
REMARK  134  A    between atoms: _321  and  _324
REMARK  135  A    between atoms: _324  and  _325
REMARK  136  A    between atoms: _328  and  _330
REMARK  137  A    between atoms: _330  and  _331
REMARK  138  A    between atoms: _330  and  _333
REMARK  139  A    between atoms: _333  and  _334
REMARK  140  A    between atoms: _337  and  _339
REMARK  141  A    between atoms: _339  and  _340
REMARK  142  A    between atoms: _342  and  _344
REMARK  143  A    between atoms: _344  and  _345
REMARK  144  A    between atoms: _348  and  _350
REMARK  145  A    between atoms: _350  and  _351
REMARK  146  A    between atoms: _350  and  _353
REMARK  147  A    between atoms: _353  and  _354
REMARK  148  A    between atoms: _357  and  _359
REMARK  149  A    between atoms: _359  and  _360
REMARK  150  A    between atoms: _359  and  _362
REMARK  151  A    between atoms: _362  and  _363
REMARK  152  A    between atoms: _366  and  _368
REMARK  153  A    between atoms: _368  and  _369
REMARK  154  A    between atoms: _368  and  _371
REMARK  155  A    between atoms: _371  and  _372
REMARK  156  A    between atoms: _375  and  _377
REMARK  157  A    between atoms: _377  and  _378
REMARK  158  A    between atoms: _377  and  _380
REMARK  159  A    between atoms: _383  and  _385
REMARK  160  A    between atoms: _385  and  _386
REMARK  161  A    between atoms: _385  and  _388
REMARK  162  A    between atoms: _388  and  _389
REMARK  163  A    between atoms: _389  and  _390
REMARK  164  A    between atoms: _390  and  _391
REMARK  165  A    between atoms: _391  and  _392
REMARK  166  A    between atoms: _396  and  _398
REMARK  167  A    between atoms: _398  and  _399
REMARK  168  A    between atoms: _398  and  _401
REMARK  169  A    between atoms: _401  and  _402
REMARK  170  A    between atoms: _402  and  _403
REMARK  171  A    between atoms: _405  and  _407
REMARK  172  A    between atoms: _407  and  _408
REMARK  173  A    between atoms: _407  and  _410
REMARK  174  A    between atoms: _410  and  _411
REMARK  175  A    between atoms: _414  and  _416
REMARK  176  A    between atoms: _416  and  _417
REMARK  177  A    between atoms: _419  and  _421
REMARK  178  A    between atoms: _421  and  _422
REMARK  179  A    between atoms: _424  and  _426
REMARK  180  A    between atoms: _426  and  _427
REMARK  181  A    between atoms: _426  and  _429
REMARK  182  A    between atoms: _429  and  _430
REMARK  183  A    between atoms: _433  and  _435
REMARK  184  A    between atoms: _435  and  _436
REMARK  185  A    between atoms: _438  and  _440
REMARK  186  A    between atoms: _440  and  _441
REMARK  187  A    between atoms: _443  and  _445
REMARK  188  A    between atoms: _445  and  _446
REMARK  189  A    between atoms: _445  and  _448
REMARK  190  A    between atoms: _448  and  _449
REMARK  191  A    between atoms: _455  and  _457
REMARK  192  A    between atoms: _457  and  _458
REMARK  193  A    between atoms: _457  and  _460
REMARK  194  A    between atoms: _460  and  _461
REMARK  195  A    between atoms: _464  and  _466
REMARK  196  A    between atoms: _466  and  _467
REMARK  197  A    between atoms: _466  and  _469
REMARK  198  A    between atoms: _472  and  _474
REMARK  199  A    between atoms: _474  and  _475
REMARK  200  A    between atoms: _474  and  _477
REMARK  201  A    between atoms: _477  and  _478
REMARK  202  A    between atoms: _481  and  _483
REMARK  203  A    between atoms: _483  and  _484
REMARK  204  A    between atoms: _483  and  _486
REMARK  205  A    between atoms: _486  and  _487
REMARK  206  A    between atoms: _491  and  _492
REMARK  207  A    between atoms: _497  and  _499
REMARK  208  A    between atoms: _499  and  _500
REMARK  209  A    between atoms: _499  and  _502
REMARK  210  A    between atoms: _505  and  _507
REMARK  211  A    between atoms: _507  and  _508
REMARK  212  A    between atoms: _507  and  _510
REMARK  213  A    between atoms: _510  and  _511
REMARK  214  A    between atoms: _516  and  _518
REMARK  215  A    between atoms: _518  and  _519
REMARK  216  A    between atoms: _518  and  _521
REMARK  217  A    between atoms: _521  and  _522
REMARK  218  A    between atoms: _525  and  _527
REMARK  219  A    between atoms: _527  and  _528
REMARK  220  A    between atoms: _527  and  _530
REMARK  221  A    between atoms: _530  and  _531
REMARK  222  A    between atoms: _534  and  _536
REMARK  223  A    between atoms: _536  and  _537
REMARK  224  A    between atoms: _539  and  _541
REMARK  225  A    between atoms: _541  and  _542
REMARK  226  A    between atoms: _541  and  _544
REMARK  227  A    between atoms: _544  and  _545
REMARK  228  A    between atoms: _545  and  _546
REMARK  229  A    between atoms: _546  and  _547
REMARK  230  A    between atoms: _556  and  _558
REMARK  231  A    between atoms: _558  and  _559
REMARK  232  A    between atoms: _558  and  _561
REMARK  233  A    between atoms: _561  and  _562
REMARK                            x       y       z     vdW  Elec       q    Type
REMARK                         _______ _______ _______ _____ _____    ______ ____
ROOT
ATOM      1  O   HOH     1      20.696  33.580  10.833  0.00  0.00    +0.000 OA
ENDROOT
TORSDOF 0
REMARK  Name = ../refined-set-2016/2z4o/2z4o_pocket.pdb
REMARK  233 active torsions:
REMARK  status: ('A' for Active; 'I' for Inactive)
REMARK    1  A    between atoms: _1  and  _3
REMARK    2  A    between atoms: _3  and  _4
REMARK    3  A    between atoms: _3  and  _6
REMARK    4  A    between atoms: _6  and  _7
REMARK    5  A    between atoms: _7  and  _8
REMARK    6  A    between atoms: _8  and  _9
REMARK    7  A    between atoms: _11  and  _15
REMARK    8  A    between atoms: _18  and  _20
REMARK    9  A    between atoms: _20  and  _21
REMARK   10  A    between atoms: _20  and  _23
REMARK   11  A    between atoms: _23  and  _24
REMARK   12  A    between atoms: _27  and  _29
REMARK   13  A    between atoms: _29  and  _30
REMARK   14  A    between atoms: _29  and  _32
REMARK   15  A    between atoms: _32  and  _33
REMARK   16  A    between atoms: _36  and  _38
REMARK   17  A    between atoms: _38  and  _39
REMARK   18  A    between atoms: _38  and  _41
REMARK   19  A    between atoms: _41  and  _42
REMARK   20  A    between atoms: _45  and  _47
REMARK   21  A    between atoms: _47  and  _48
REMARK   22  A    between atoms: _47  and  _50
REMARK   23  A    between atoms: _50  and  _51
REMARK   24  A    between atoms: _54  and  _56
REMARK   25  A    between atoms: _56  and  _57
REMARK   26  A    between atoms: _59  and  _61
REMARK   27  A    between atoms: _61  and  _62
REMARK   28  A    between atoms: _65  and  _67
REMARK   29  A    between atoms: _67  and  _68
REMARK   30  A    between atoms: _67  and  _70
REMARK   31  A    between atoms: _70  and  _71
REMARK   32  A    between atoms: _74  and  _76
REMARK   33  A    between atoms: _76  and  _77
REMARK   34  A    between atoms: _76  and  _79
REMARK   35  A    between atoms: _79  and  _80
REMARK   36  A    between atoms: _83  and  _85
REMARK   37  A    between atoms: _85  and  _86
REMARK   38  A    between atoms: _85  and  _88
REMARK   39  A    between atoms: _88  and  _89
REMARK   40  A    between atoms: _92  and  _94
REMARK   41  A    between atoms: _94  and  _95
REMARK   42  A    between atoms: _94  and  _97
REMARK   43  A    between atoms: _100  and  _102
REMARK   44  A    between atoms: _102  and  _103
REMARK   45  A    between atoms: _102  and  _105
REMARK   46  A    between atoms: _105  and  _106
REMARK   47  A    between atoms: _106  and  _107
REMARK   48  A    between atoms: _107  and  _108
REMARK   49  A    between atoms: _108  and  _109
REMARK   50  A    between atoms: _113  and  _115
REMARK   51  A    between atoms: _115  and  _116
REMARK   52  A    between atoms: _115  and  _118
REMARK   53  A    between atoms: _118  and  _119
REMARK   54  A    between atoms: _119  and  _120
REMARK   55  A    between atoms: _122  and  _124
REMARK   56  A    between atoms: _124  and  _125
REMARK   57  A    between atoms: _124  and  _127
REMARK   58  A    between atoms: _127  and  _128
REMARK   59  A    between atoms: _131  and  _133
REMARK   60  A    between atoms: _133  and  _134
REMARK   61  A    between atoms: _136  and  _138
REMARK   62  A    between atoms: _138  and  _139
REMARK   63  A    between atoms: _141  and  _143
REMARK   64  A    between atoms: _143  and  _144
REMARK   65  A    between atoms: _143  and  _146
REMARK   66  A    between atoms: _146  and  _147
REMARK   67  A    between atoms: _150  and  _152
REMARK   68  A    between atoms: _152  and  _153
REMARK   69  A    between atoms: _155  and  _157
REMARK   70  A    between atoms: _157  and  _158
REMARK   71  A    between atoms: _160  and  _162
REMARK   72  A    between atoms: _162  and  _163
REMARK   73  A    between atoms: _162  and  _165
REMARK   74  A    between atoms: _165  and  _166
REMARK   75  A    between atoms: _172  and  _174
REMARK   76  A    between atoms: _174  and  _175
REMARK   77  A    between atoms: _174  and  _177
REMARK   78  A    between atoms: _177  and  _178
REMARK   79  A    between atoms: _181  and  _183
REMARK   80  A    between atoms: _183  and  _184
REMARK   81  A    between atoms: _183  and  _186
REMARK   82  A    between atoms: _189  and  _191
REMARK   83  A    between atoms: _191  and  _192
REMARK   84  A    between atoms: _191  and  _194
REMARK   85  A    between atoms: _194  and  _195
REMARK   86  A    between atoms: _198  and  _200
REMARK   87  A    between atoms: _200  and  _201
REMARK   88  A    between atoms: _200  and  _203
REMARK   89  A    between atoms: _203  and  _204
REMARK   90  A    between atoms: _208  and  _209
REMARK   91  A    between atoms: _214  and  _216
REMARK   92  A    between atoms: _216  and  _217
REMARK   93  A    between atoms: _216  and  _219
REMARK   94  A    between atoms: _222  and  _224
REMARK   95  A    between atoms: _224  and  _225
REMARK   96  A    between atoms: _224  and  _227
REMARK   97  A    between atoms: _227  and  _228
REMARK   98  A    between atoms: _233  and  _235
REMARK   99  A    between atoms: _235  and  _236
REMARK  100  A    between atoms: _235  and  _238
REMARK  101  A    between atoms: _238  and  _239
REMARK  102  A    between atoms: _242  and  _244
REMARK  103  A    between atoms: _244  and  _245
REMARK  104  A    between atoms: _244  and  _247
REMARK  105  A    between atoms: _247  and  _248
REMARK  106  A    between atoms: _251  and  _253
REMARK  107  A    between atoms: _253  and  _254
REMARK  108  A    between atoms: _256  and  _258
REMARK  109  A    between atoms: _258  and  _259
REMARK  110  A    between atoms: _258  and  _261
REMARK  111  A    between atoms: _261  and  _262
REMARK  112  A    between atoms: _262  and  _263
REMARK  113  A    between atoms: _263  and  _264
REMARK  114  A    between atoms: _273  and  _275
REMARK  115  A    between atoms: _275  and  _276
REMARK  116  A    between atoms: _275  and  _278
REMARK  117  A    between atoms: _278  and  _279
REMARK  118  A    between atoms: _284  and  _286
REMARK  119  A    between atoms: _286  and  _287
REMARK  120  A    between atoms: _286  and  _289
REMARK  121  A    between atoms: _289  and  _290
REMARK  122  A    between atoms: _290  and  _291
REMARK  123  A    between atoms: _291  and  _292
REMARK  124  A    between atoms: _301  and  _303
REMARK  125  A    between atoms: _303  and  _304
REMARK  126  A    between atoms: _303  and  _306
REMARK  127  A    between atoms: _306  and  _307
REMARK  128  A    between atoms: _310  and  _312
REMARK  129  A    between atoms: _312  and  _313
REMARK  130  A    between atoms: _312  and  _315
REMARK  131  A    between atoms: _315  and  _316
REMARK  132  A    between atoms: _319  and  _321
REMARK  133  A    between atoms: _321  and  _322
REMARK  134  A    between atoms: _321  and  _324
REMARK  135  A    between atoms: _324  and  _325
REMARK  136  A    between atoms: _328  and  _330
REMARK  137  A    between atoms: _330  and  _331
REMARK  138  A    between atoms: _330  and  _333
REMARK  139  A    between atoms: _333  and  _334
REMARK  140  A    between atoms: _337  and  _339
REMARK  141  A    between atoms: _339  and  _340
REMARK  142  A    between atoms: _342  and  _344
REMARK  143  A    between atoms: _344  and  _345
REMARK  144  A    between atoms: _348  and  _350
REMARK  145  A    between atoms: _350  and  _351
REMARK  146  A    between atoms: _350  and  _353
REMARK  147  A    between atoms: _353  and  _354
REMARK  148  A    between atoms: _357  and  _359
REMARK  149  A    between atoms: _359  and  _360
REMARK  150  A    between atoms: _359  and  _362
REMARK  151  A    between atoms: _362  and  _363
REMARK  152  A    between atoms: _366  and  _368
REMARK  153  A    between atoms: _368  and  _369
REMARK  154  A    between atoms: _368  and  _371
REMARK  155  A    between atoms: _371  and  _372
REMARK  156  A    between atoms: _375  and  _377
REMARK  157  A    between atoms: _377  and  _378
REMARK  158  A    between atoms: _377  and  _380
REMARK  159  A    between atoms: _383  and  _385
REMARK  160  A    between atoms: _385  and  _386
REMARK  161  A    between atoms: _385  and  _388
REMARK  162  A    between atoms: _388  and  _389
REMARK  163  A    between atoms: _389  and  _390
REMARK  164  A    between atoms: _390  and  _391
REMARK  165  A    between atoms: _391  and  _392
REMARK  166  A    between atoms: _396  and  _398
REMARK  167  A    between atoms: _398  and  _399
REMARK  168  A    between atoms: _398  and  _401
REMARK  169  A    between atoms: _401  and  _402
REMARK  170  A    between atoms: _402  and  _403
REMARK  171  A    between atoms: _405  and  _407
REMARK  172  A    between atoms: _407  and  _408
REMARK  173  A    between atoms: _407  and  _410
REMARK  174  A    between atoms: _410  and  _411
REMARK  175  A    between atoms: _414  and  _416
REMARK  176  A    between atoms: _416  and  _417
REMARK  177  A    between atoms: _419  and  _421
REMARK  178  A    between atoms: _421  and  _422
REMARK  179  A    between atoms: _424  and  _426
REMARK  180  A    between atoms: _426  and  _427
REMARK  181  A    between atoms: _426  and  _429
REMARK  182  A    between atoms: _429  and  _430
REMARK  183  A    between atoms: _433  and  _435
REMARK  184  A    between atoms: _435  and  _436
REMARK  185  A    between atoms: _438  and  _440
REMARK  186  A    between atoms: _440  and  _441
REMARK  187  A    between atoms: _443  and  _445
REMARK  188  A    between atoms: _445  and  _446
REMARK  189  A    between atoms: _445  and  _448
REMARK  190  A    between atoms: _448  and  _449
REMARK  191  A    between atoms: _455  and  _457
REMARK  192  A    between atoms: _457  and  _458
REMARK  193  A    between atoms: _457  and  _460
REMARK  194  A    between atoms: _460  and  _461
REMARK  195  A    between atoms: _464  and  _466
REMARK  196  A    between atoms: _466  and  _467
REMARK  197  A    between atoms: _466  and  _469
REMARK  198  A    between atoms: _472  and  _474
REMARK  199  A    between atoms: _474  and  _475
REMARK  200  A    between atoms: _474  and  _477
REMARK  201  A    between atoms: _477  and  _478
REMARK  202  A    between atoms: _481  and  _483
REMARK  203  A    between atoms: _483  and  _484
REMARK  204  A    between atoms: _483  and  _486
REMARK  205  A    between atoms: _486  and  _487
REMARK  206  A    between atoms: _491  and  _492
REMARK  207  A    between atoms: _497  and  _499
REMARK  208  A    between atoms: _499  and  _500
REMARK  209  A    between atoms: _499  and  _502
REMARK  210  A    between atoms: _505  and  _507
REMARK  211  A    between atoms: _507  and  _508
REMARK  212  A    between atoms: _507  and  _510
REMARK  213  A    between atoms: _510  and  _511
REMARK  214  A    between atoms: _516  and  _518
REMARK  215  A    between atoms: _518  and  _519
REMARK  216  A    between atoms: _518  and  _521
REMARK  217  A    between atoms: _521  and  _522
REMARK  218  A    between atoms: _525  and  _527
REMARK  219  A    between atoms: _527  and  _528
REMARK  220  A    between atoms: _527  and  _530
REMARK  221  A    between atoms: _530  and  _531
REMARK  222  A    between atoms: _534  and  _536
REMARK  223  A    between atoms: _536  and  _537
REMARK  224  A    between atoms: _539  and  _541
REMARK  225  A    between atoms: _541  and  _542
REMARK  226  A    between atoms: _541  and  _544
REMARK  227  A    between atoms: _544  and  _545
REMARK  228  A    between atoms: _545  and  _546
REMARK  229  A    between atoms: _546  and  _547
REMARK  230  A    between atoms: _556  and  _558
REMARK  231  A    between atoms: _558  and  _559
REMARK  232  A    between atoms: _558  and  _561
REMARK  233  A    between atoms: _561  and  _562
REMARK                            x       y       z     vdW  Elec       q    Type
REMARK                         _______ _______ _______ _____ _____    ______ ____
ROOT
ATOM      1  O   HOH     1      20.023  28.665  21.333  0.00  0.00    +0.000 OA
ENDROOT
TORSDOF 0
REMARK  Name = ../refined-set-2016/2z4o/2z4o_pocket.pdb
REMARK  233 active torsions:
REMARK  status: ('A' for Active; 'I' for Inactive)
REMARK    1  A    between atoms: _1  and  _3
REMARK    2  A    between atoms: _3  and  _4
REMARK    3  A    between atoms: _3  and  _6
REMARK    4  A    between atoms: _6  and  _7
REMARK    5  A    between atoms: _7  and  _8
REMARK    6  A    between atoms: _8  and  _9
REMARK    7  A    between atoms: _11  and  _15
REMARK    8  A    between atoms: _18  and  _20
REMARK    9  A    between atoms: _20  and  _21
REMARK   10  A    between atoms: _20  and  _23
REMARK   11  A    between atoms: _23  and  _24
REMARK   12  A    between atoms: _27  and  _29
REMARK   13  A    between atoms: _29  and  _30
REMARK   14  A    between atoms: _29  and  _32
REMARK   15  A    between atoms: _32  and  _33
REMARK   16  A    between atoms: _36  and  _38
REMARK   17  A    between atoms: _38  and  _39
REMARK   18  A    between atoms: _38  and  _41
REMARK   19  A    between atoms: _41  and  _42
REMARK   20  A    between atoms: _45  and  _47
REMARK   21  A    between atoms: _47  and  _48
REMARK   22  A    between atoms: _47  and  _50
REMARK   23  A    between atoms: _50  and  _51
REMARK   24  A    between atoms: _54  and  _56
REMARK   25  A    between atoms: _56  and  _57
REMARK   26  A    between atoms: _59  and  _61
REMARK   27  A    between atoms: _61  and  _62
REMARK   28  A    between atoms: _65  and  _67
REMARK   29  A    between atoms: _67  and  _68
REMARK   30  A    between atoms: _67  and  _70
REMARK   31  A    between atoms: _70  and  _71
REMARK   32  A    between atoms: _74  and  _76
REMARK   33  A    between atoms: _76  and  _77
REMARK   34  A    between atoms: _76  and  _79
REMARK   35  A    between atoms: _79  and  _80
REMARK   36  A    between atoms: _83  and  _85
REMARK   37  A    between atoms: _85  and  _86
REMARK   38  A    between atoms: _85  and  _88
REMARK   39  A    between atoms: _88  and  _89
REMARK   40  A    between atoms: _92  and  _94
REMARK   41  A    between atoms: _94  and  _95
REMARK   42  A    between atoms: _94  and  _97
REMARK   43  A    between atoms: _100  and  _102
REMARK   44  A    between atoms: _102  and  _103
REMARK   45  A    between atoms: _102  and  _105
REMARK   46  A    between atoms: _105  and  _106
REMARK   47  A    between atoms: _106  and  _107
REMARK   48  A    between atoms: _107  and  _108
REMARK   49  A    between atoms: _108  and  _109
REMARK   50  A    between atoms: _113  and  _115
REMARK   51  A    between atoms: _115  and  _116
REMARK   52  A    between atoms: _115  and  _118
REMARK   53  A    between atoms: _118  and  _119
REMARK   54  A    between atoms: _119  and  _120
REMARK   55  A    between atoms: _122  and  _124
REMARK   56  A    between atoms: _124  and  _125
REMARK   57  A    between atoms: _124  and  _127
REMARK   58  A    between atoms: _127  and  _128
REMARK   59  A    between atoms: _131  and  _133
REMARK   60  A    between atoms: _133  and  _134
REMARK   61  A    between atoms: _136  and  _138
REMARK   62  A    between atoms: _138  and  _139
REMARK   63  A    between atoms: _141  and  _143
REMARK   64  A    between atoms: _143  and  _144
REMARK   65  A    between atoms: _143  and  _146
REMARK   66  A    between atoms: _146  and  _147
REMARK   67  A    between atoms: _150  and  _152
REMARK   68  A    between atoms: _152  and  _153
REMARK   69  A    between atoms: _155  and  _157
REMARK   70  A    between atoms: _157  and  _158
REMARK   71  A    between atoms: _160  and  _162
REMARK   72  A    between atoms: _162  and  _163
REMARK   73  A    between atoms: _162  and  _165
REMARK   74  A    between atoms: _165  and  _166
REMARK   75  A    between atoms: _172  and  _174
REMARK   76  A    between atoms: _174  and  _175
REMARK   77  A    between atoms: _174  and  _177
REMARK   78  A    between atoms: _177  and  _178
REMARK   79  A    between atoms: _181  and  _183
REMARK   80  A    between atoms: _183  and  _184
REMARK   81  A    between atoms: _183  and  _186
REMARK   82  A    between atoms: _189  and  _191
REMARK   83  A    between atoms: _191  and  _192
REMARK   84  A    between atoms: _191  and  _194
REMARK   85  A    between atoms: _194  and  _195
REMARK   86  A    between atoms: _198  and  _200
REMARK   87  A    between atoms: _200  and  _201
REMARK   88  A    between atoms: _200  and  _203
REMARK   89  A    between atoms: _203  and  _204
REMARK   90  A    between atoms: _208  and  _209
REMARK   91  A    between atoms: _214  and  _216
REMARK   92  A    between atoms: _216  and  _217
REMARK   93  A    between atoms: _216  and  _219
REMARK   94  A    between atoms: _222  and  _224
REMARK   95  A    between atoms: _224  and  _225
REMARK   96  A    between atoms: _224  and  _227
REMARK   97  A    between atoms: _227  and  _228
REMARK   98  A    between atoms: _233  and  _235
REMARK   99  A    between atoms: _235  and  _236
REMARK  100  A    between atoms: _235  and  _238
REMARK  101  A    between atoms: _238  and  _239
REMARK  102  A    between atoms: _242  and  _244
REMARK  103  A    between atoms: _244  and  _245
REMARK  104  A    between atoms: _244  and  _247
REMARK  105  A    between atoms: _247  and  _248
REMARK  106  A    between atoms: _251  and  _253
REMARK  107  A    between atoms: _253  and  _254
REMARK  108  A    between atoms: _256  and  _258
REMARK  109  A    between atoms: _258  and  _259
REMARK  110  A    between atoms: _258  and  _261
REMARK  111  A    between atoms: _261  and  _262
REMARK  112  A    between atoms: _262  and  _263
REMARK  113  A    between atoms: _263  and  _264
REMARK  114  A    between atoms: _273  and  _275
REMARK  115  A    between atoms: _275  and  _276
REMARK  116  A    between atoms: _275  and  _278
REMARK  117  A    between atoms: _278  and  _279
REMARK  118  A    between atoms: _284  and  _286
REMARK  119  A    between atoms: _286  and  _287
REMARK  120  A    between atoms: _286  and  _289
REMARK  121  A    between atoms: _289  and  _290
REMARK  122  A    between atoms: _290  and  _291
REMARK  123  A    between atoms: _291  and  _292
REMARK  124  A    between atoms: _301  and  _303
REMARK  125  A    between atoms: _303  and  _304
REMARK  126  A    between atoms: _303  and  _306
REMARK  127  A    between atoms: _306  and  _307
REMARK  128  A    between atoms: _310  and  _312
REMARK  129  A    between atoms: _312  and  _313
REMARK  130  A    between atoms: _312  and  _315
REMARK  131  A    between atoms: _315  and  _316
REMARK  132  A    between atoms: _319  and  _321
REMARK  133  A    between atoms: _321  and  _322
REMARK  134  A    between atoms: _321  and  _324
REMARK  135  A    between atoms: _324  and  _325
REMARK  136  A    between atoms: _328  and  _330
REMARK  137  A    between atoms: _330  and  _331
REMARK  138  A    between atoms: _330  and  _333
REMARK  139  A    between atoms: _333  and  _334
REMARK  140  A    between atoms: _337  and  _339
REMARK  141  A    between atoms: _339  and  _340
REMARK  142  A    between atoms: _342  and  _344
REMARK  143  A    between atoms: _344  and  _345
REMARK  144  A    between atoms: _348  and  _350
REMARK  145  A    between atoms: _350  and  _351
REMARK  146  A    between atoms: _350  and  _353
REMARK  147  A    between atoms: _353  and  _354
REMARK  148  A    between atoms: _357  and  _359
REMARK  149  A    between atoms: _359  and  _360
REMARK  150  A    between atoms: _359  and  _362
REMARK  151  A    between atoms: _362  and  _363
REMARK  152  A    between atoms: _366  and  _368
REMARK  153  A    between atoms: _368  and  _369
REMARK  154  A    between atoms: _368  and  _371
REMARK  155  A    between atoms: _371  and  _372
REMARK  156  A    between atoms: _375  and  _377
REMARK  157  A    between atoms: _377  and  _378
REMARK  158  A    between atoms: _377  and  _380
REMARK  159  A    between atoms: _383  and  _385
REMARK  160  A    between atoms: _385  and  _386
REMARK  161  A    between atoms: _385  and  _388
REMARK  162  A    between atoms: _388  and  _389
REMARK  163  A    between atoms: _389  and  _390
REMARK  164  A    between atoms: _390  and  _391
REMARK  165  A    between atoms: _391  and  _392
REMARK  166  A    between atoms: _396  and  _398
REMARK  167  A    between atoms: _398  and  _399
REMARK  168  A    between atoms: _398  and  _401
REMARK  169  A    between atoms: _401  and  _402
REMARK  170  A    between atoms: _402  and  _403
REMARK  171  A    between atoms: _405  and  _407
REMARK  172  A    between atoms: _407  and  _408
REMARK  173  A    between atoms: _407  and  _410
REMARK  174  A    between atoms: _410  and  _411
REMARK  175  A    between atoms: _414  and  _416
REMARK  176  A    between atoms: _416  and  _417
REMARK  177  A    between atoms: _419  and  _421
REMARK  178  A    between atoms: _421  and  _422
REMARK  179  A    between atoms: _424  and  _426
REMARK  180  A    between atoms: _426  and  _427
REMARK  181  A    between atoms: _426  and  _429
REMARK  182  A    between atoms: _429  and  _430
REMARK  183  A    between atoms: _433  and  _435
REMARK  184  A    between atoms: _435  and  _436
REMARK  185  A    between atoms: _438  and  _440
REMARK  186  A    between atoms: _440  and  _441
REMARK  187  A    between atoms: _443  and  _445
REMARK  188  A    between atoms: _445  and  _446
REMARK  189  A    between atoms: _445  and  _448
REMARK  190  A    between atoms: _448  and  _449
REMARK  191  A    between atoms: _455  and  _457
REMARK  192  A    between atoms: _457  and  _458
REMARK  193  A    between atoms: _457  and  _460
REMARK  194  A    between atoms: _460  and  _461
REMARK  195  A    between atoms: _464  and  _466
REMARK  196  A    between atoms: _466  and  _467
REMARK  197  A    between atoms: _466  and  _469
REMARK  198  A    between atoms: _472  and  _474
REMARK  199  A    between atoms: _474  and  _475
REMARK  200  A    between atoms: _474  and  _477
REMARK  201  A    between atoms: _477  and  _478
REMARK  202  A    between atoms: _481  and  _483
REMARK  203  A    between atoms: _483  and  _484
REMARK  204  A    between atoms: _483  and  _486
REMARK  205  A    between atoms: _486  and  _487
REMARK  206  A    between atoms: _491  and  _492
REMARK  207  A    between atoms: _497  and  _499
REMARK  208  A    between atoms: _499  and  _500
REMARK  209  A    between atoms: _499  and  _502
REMARK  210  A    between atoms: _505  and  _507
REMARK  211  A    between atoms: _507  and  _508
REMARK  212  A    between atoms: _507  and  _510
REMARK  213  A    between atoms: _510  and  _511
REMARK  214  A    between atoms: _516  and  _518
REMARK  215  A    between atoms: _518  and  _519
REMARK  216  A    between atoms: _518  and  _521
REMARK  217  A    between atoms: _521  and  _522
REMARK  218  A    between atoms: _525  and  _527
REMARK  219  A    between atoms: _527  and  _528
REMARK  220  A    between atoms: _527  and  _530
REMARK  221  A    between atoms: _530  and  _531
REMARK  222  A    between atoms: _534  and  _536
REMARK  223  A    between atoms: _536  and  _537
REMARK  224  A    between atoms: _539  and  _541
REMARK  225  A    between atoms: _541  and  _542
REMARK  226  A    between atoms: _541  and  _544
REMARK  227  A    between atoms: _544  and  _545
REMARK  228  A    between atoms: _545  and  _546
REMARK  229  A    between atoms: _546  and  _547
REMARK  230  A    between atoms: _556  and  _558
REMARK  231  A    between atoms: _558  and  _559
REMARK  232  A    between atoms: _558  and  _561
REMARK  233  A    between atoms: _561  and  _562
REMARK                            x       y       z     vdW  Elec       q    Type
REMARK                         _______ _______ _______ _____ _____    ______ ____
ROOT
ATOM      1  O   HOH     1      26.063  25.813  16.067  0.00  0.00    +0.000 OA
ENDROOT
TORSDOF 0
REMARK  Name = ../refined-set-2016/2z4o/2z4o_pocket.pdb
REMARK  233 active torsions:
REMARK  status: ('A' for Active; 'I' for Inactive)
REMARK    1  A    between atoms: _1  and  _3
REMARK    2  A    between atoms: _3  and  _4
REMARK    3  A    between atoms: _3  and  _6
REMARK    4  A    between atoms: _6  and  _7
REMARK    5  A    between atoms: _7  and  _8
REMARK    6  A    between atoms: _8  and  _9
REMARK    7  A    between atoms: _11  and  _15
REMARK    8  A    between atoms: _18  and  _20
REMARK    9  A    between atoms: _20  and  _21
REMARK   10  A    between atoms: _20  and  _23
REMARK   11  A    between atoms: _23  and  _24
REMARK   12  A    between atoms: _27  and  _29
REMARK   13  A    between atoms: _29  and  _30
REMARK   14  A    between atoms: _29  and  _32
REMARK   15  A    between atoms: _32  and  _33
REMARK   16  A    between atoms: _36  and  _38
REMARK   17  A    between atoms: _38  and  _39
REMARK   18  A    between atoms: _38  and  _41
REMARK   19  A    between atoms: _41  and  _42
REMARK   20  A    between atoms: _45  and  _47
REMARK   21  A    between atoms: _47  and  _48
REMARK   22  A    between atoms: _47  and  _50
REMARK   23  A    between atoms: _50  and  _51
REMARK   24  A    between atoms: _54  and  _56
REMARK   25  A    between atoms: _56  and  _57
REMARK   26  A    between atoms: _59  and  _61
REMARK   27  A    between atoms: _61  and  _62
REMARK   28  A    between atoms: _65  and  _67
REMARK   29  A    between atoms: _67  and  _68
REMARK   30  A    between atoms: _67  and  _70
REMARK   31  A    between atoms: _70  and  _71
REMARK   32  A    between atoms: _74  and  _76
REMARK   33  A    between atoms: _76  and  _77
REMARK   34  A    between atoms: _76  and  _79
REMARK   35  A    between atoms: _79  and  _80
REMARK   36  A    between atoms: _83  and  _85
REMARK   37  A    between atoms: _85  and  _86
REMARK   38  A    between atoms: _85  and  _88
REMARK   39  A    between atoms: _88  and  _89
REMARK   40  A    between atoms: _92  and  _94
REMARK   41  A    between atoms: _94  and  _95
REMARK   42  A    between atoms: _94  and  _97
REMARK   43  A    between atoms: _100  and  _102
REMARK   44  A    between atoms: _102  and  _103
REMARK   45  A    between atoms: _102  and  _105
REMARK   46  A    between atoms: _105  and  _106
REMARK   47  A    between atoms: _106  and  _107
REMARK   48  A    between atoms: _107  and  _108
REMARK   49  A    between atoms: _108  and  _109
REMARK   50  A    between atoms: _113  and  _115
REMARK   51  A    between atoms: _115  and  _116
REMARK   52  A    between atoms: _115  and  _118
REMARK   53  A    between atoms: _118  and  _119
REMARK   54  A    between atoms: _119  and  _120
REMARK   55  A    between atoms: _122  and  _124
REMARK   56  A    between atoms: _124  and  _125
REMARK   57  A    between atoms: _124  and  _127
REMARK   58  A    between atoms: _127  and  _128
REMARK   59  A    between atoms: _131  and  _133
REMARK   60  A    between atoms: _133  and  _134
REMARK   61  A    between atoms: _136  and  _138
REMARK   62  A    between atoms: _138  and  _139
REMARK   63  A    between atoms: _141  and  _143
REMARK   64  A    between atoms: _143  and  _144
REMARK   65  A    between atoms: _143  and  _146
REMARK   66  A    between atoms: _146  and  _147
REMARK   67  A    between atoms: _150  and  _152
REMARK   68  A    between atoms: _152  and  _153
REMARK   69  A    between atoms: _155  and  _157
REMARK   70  A    between atoms: _157  and  _158
REMARK   71  A    between atoms: _160  and  _162
REMARK   72  A    between atoms: _162  and  _163
REMARK   73  A    between atoms: _162  and  _165
REMARK   74  A    between atoms: _165  and  _166
REMARK   75  A    between atoms: _172  and  _174
REMARK   76  A    between atoms: _174  and  _175
REMARK   77  A    between atoms: _174  and  _177
REMARK   78  A    between atoms: _177  and  _178
REMARK   79  A    between atoms: _181  and  _183
REMARK   80  A    between atoms: _183  and  _184
REMARK   81  A    between atoms: _183  and  _186
REMARK   82  A    between atoms: _189  and  _191
REMARK   83  A    between atoms: _191  and  _192
REMARK   84  A    between atoms: _191  and  _194
REMARK   85  A    between atoms: _194  and  _195
REMARK   86  A    between atoms: _198  and  _200
REMARK   87  A    between atoms: _200  and  _201
REMARK   88  A    between atoms: _200  and  _203
REMARK   89  A    between atoms: _203  and  _204
REMARK   90  A    between atoms: _208  and  _209
REMARK   91  A    between atoms: _214  and  _216
REMARK   92  A    between atoms: _216  and  _217
REMARK   93  A    between atoms: _216  and  _219
REMARK   94  A    between atoms: _222  and  _224
REMARK   95  A    between atoms: _224  and  _225
REMARK   96  A    between atoms: _224  and  _227
REMARK   97  A    between atoms: _227  and  _228
REMARK   98  A    between atoms: _233  and  _235
REMARK   99  A    between atoms: _235  and  _236
REMARK  100  A    between atoms: _235  and  _238
REMARK  101  A    between atoms: _238  and  _239
REMARK  102  A    between atoms: _242  and  _244
REMARK  103  A    between atoms: _244  and  _245
REMARK  104  A    between atoms: _244  and  _247
REMARK  105  A    between atoms: _247  and  _248
REMARK  106  A    between atoms: _251  and  _253
REMARK  107  A    between atoms: _253  and  _254
REMARK  108  A    between atoms: _256  and  _258
REMARK  109  A    between atoms: _258  and  _259
REMARK  110  A    between atoms: _258  and  _261
REMARK  111  A    between atoms: _261  and  _262
REMARK  112  A    between atoms: _262  and  _263
REMARK  113  A    between atoms: _263  and  _264
REMARK  114  A    between atoms: _273  and  _275
REMARK  115  A    between atoms: _275  and  _276
REMARK  116  A    between atoms: _275  and  _278
REMARK  117  A    between atoms: _278  and  _279
REMARK  118  A    between atoms: _284  and  _286
REMARK  119  A    between atoms: _286  and  _287
REMARK  120  A    between atoms: _286  and  _289
REMARK  121  A    between atoms: _289  and  _290
REMARK  122  A    between atoms: _290  and  _291
REMARK  123  A    between atoms: _291  and  _292
REMARK  124  A    between atoms: _301  and  _303
REMARK  125  A    between atoms: _303  and  _304
REMARK  126  A    between atoms: _303  and  _306
REMARK  127  A    between atoms: _306  and  _307
REMARK  128  A    between atoms: _310  and  _312
REMARK  129  A    between atoms: _312  and  _313
REMARK  130  A    between atoms: _312  and  _315
REMARK  131  A    between atoms: _315  and  _316
REMARK  132  A    between atoms: _319  and  _321
REMARK  133  A    between atoms: _321  and  _322
REMARK  134  A    between atoms: _321  and  _324
REMARK  135  A    between atoms: _324  and  _325
REMARK  136  A    between atoms: _328  and  _330
REMARK  137  A    between atoms: _330  and  _331
REMARK  138  A    between atoms: _330  and  _333
REMARK  139  A    between atoms: _333  and  _334
REMARK  140  A    between atoms: _337  and  _339
REMARK  141  A    between atoms: _339  and  _340
REMARK  142  A    between atoms: _342  and  _344
REMARK  143  A    between atoms: _344  and  _345
REMARK  144  A    between atoms: _348  and  _350
REMARK  145  A    between atoms: _350  and  _351
REMARK  146  A    between atoms: _350  and  _353
REMARK  147  A    between atoms: _353  and  _354
REMARK  148  A    between atoms: _357  and  _359
REMARK  149  A    between atoms: _359  and  _360
REMARK  150  A    between atoms: _359  and  _362
REMARK  151  A    between atoms: _362  and  _363
REMARK  152  A    between atoms: _366  and  _368
REMARK  153  A    between atoms: _368  and  _369
REMARK  154  A    between atoms: _368  and  _371
REMARK  155  A    between atoms: _371  and  _372
REMARK  156  A    between atoms: _375  and  _377
REMARK  157  A    between atoms: _377  and  _378
REMARK  158  A    between atoms: _377  and  _380
REMARK  159  A    between atoms: _383  and  _385
REMARK  160  A    between atoms: _385  and  _386
REMARK  161  A    between atoms: _385  and  _388
REMARK  162  A    between atoms: _388  and  _389
REMARK  163  A    between atoms: _389  and  _390
REMARK  164  A    between atoms: _390  and  _391
REMARK  165  A    between atoms: _391  and  _392
REMARK  166  A    between atoms: _396  and  _398
REMARK  167  A    between atoms: _398  and  _399
REMARK  168  A    between atoms: _398  and  _401
REMARK  169  A    between atoms: _401  and  _402
REMARK  170  A    between atoms: _402  and  _403
REMARK  171  A    between atoms: _405  and  _407
REMARK  172  A    between atoms: _407  and  _408
REMARK  173  A    between atoms: _407  and  _410
REMARK  174  A    between atoms: _410  and  _411
REMARK  175  A    between atoms: _414  and  _416
REMARK  176  A    between atoms: _416  and  _417
REMARK  177  A    between atoms: _419  and  _421
REMARK  178  A    between atoms: _421  and  _422
REMARK  179  A    between atoms: _424  and  _426
REMARK  180  A    between atoms: _426  and  _427
REMARK  181  A    between atoms: _426  and  _429
REMARK  182  A    between atoms: _429  and  _430
REMARK  183  A    between atoms: _433  and  _435
REMARK  184  A    between atoms: _435  and  _436
REMARK  185  A    between atoms: _438  and  _440
REMARK  186  A    between atoms: _440  and  _441
REMARK  187  A    between atoms: _443  and  _445
REMARK  188  A    between atoms: _445  and  _446
REMARK  189  A    between atoms: _445  and  _448
REMARK  190  A    between atoms: _448  and  _449
REMARK  191  A    between atoms: _455  and  _457
REMARK  192  A    between atoms: _457  and  _458
REMARK  193  A    between atoms: _457  and  _460
REMARK  194  A    between atoms: _460  and  _461
REMARK  195  A    between atoms: _464  and  _466
REMARK  196  A    between atoms: _466  and  _467
REMARK  197  A    between atoms: _466  and  _469
REMARK  198  A    between atoms: _472  and  _474
REMARK  199  A    between atoms: _474  and  _475
REMARK  200  A    between atoms: _474  and  _477
REMARK  201  A    between atoms: _477  and  _478
REMARK  202  A    between atoms: _481  and  _483
REMARK  203  A    between atoms: _483  and  _484
REMARK  204  A    between atoms: _483  and  _486
REMARK  205  A    between atoms: _486  and  _487
REMARK  206  A    between atoms: _491  and  _492
REMARK  207  A    between atoms: _497  and  _499
REMARK  208  A    between atoms: _499  and  _500
REMARK  209  A    between atoms: _499  and  _502
REMARK  210  A    between atoms: _505  and  _507
REMARK  211  A    between atoms: _507  and  _508
REMARK  212  A    between atoms: _507  and  _510
REMARK  213  A    between atoms: _510  and  _511
REMARK  214  A    between atoms: _516  and  _518
REMARK  215  A    between atoms: _518  and  _519
REMARK  216  A    between atoms: _518  and  _521
REMARK  217  A    between atoms: _521  and  _522
REMARK  218  A    between atoms: _525  and  _527
REMARK  219  A    between atoms: _527  and  _528
REMARK  220  A    between atoms: _527  and  _530
REMARK  221  A    between atoms: _530  and  _531
REMARK  222  A    between atoms: _534  and  _536
REMARK  223  A    between atoms: _536  and  _537
REMARK  224  A    between atoms: _539  and  _541
REMARK  225  A    between atoms: _541  and  _542
REMARK  226  A    between atoms: _541  and  _544
REMARK  227  A    between atoms: _544  and  _545
REMARK  228  A    between atoms: _545  and  _546
REMARK  229  A    between atoms: _546  and  _547
REMARK  230  A    between atoms: _556  and  _558
REMARK  231  A    between atoms: _558  and  _559
REMARK  232  A    between atoms: _558  and  _561
REMARK  233  A    between atoms: _561  and  _562
REMARK                            x       y       z     vdW  Elec       q    Type
REMARK                         _______ _______ _______ _____ _____    ______ ____
ROOT
ATOM      1  O   HOH     1      20.884  35.501  17.623  0.00  0.00    +0.000 OA
ENDROOT
TORSDOF 0
REMARK  Name = ../refined-set-2016/2z4o/2z4o_pocket.pdb
REMARK  233 active torsions:
REMARK  status: ('A' for Active; 'I' for Inactive)
REMARK    1  A    between atoms: _1  and  _3
REMARK    2  A    between atoms: _3  and  _4
REMARK    3  A    between atoms: _3  and  _6
REMARK    4  A    between atoms: _6  and  _7
REMARK    5  A    between atoms: _7  and  _8
REMARK    6  A    between atoms: _8  and  _9
REMARK    7  A    between atoms: _11  and  _15
REMARK    8  A    between atoms: _18  and  _20
REMARK    9  A    between atoms: _20  and  _21
REMARK   10  A    between atoms: _20  and  _23
REMARK   11  A    between atoms: _23  and  _24
REMARK   12  A    between atoms: _27  and  _29
REMARK   13  A    between atoms: _29  and  _30
REMARK   14  A    between atoms: _29  and  _32
REMARK   15  A    between atoms: _32  and  _33
REMARK   16  A    between atoms: _36  and  _38
REMARK   17  A    between atoms: _38  and  _39
REMARK   18  A    between atoms: _38  and  _41
REMARK   19  A    between atoms: _41  and  _42
REMARK   20  A    between atoms: _45  and  _47
REMARK   21  A    between atoms: _47  and  _48
REMARK   22  A    between atoms: _47  and  _50
REMARK   23  A    between atoms: _50  and  _51
REMARK   24  A    between atoms: _54  and  _56
REMARK   25  A    between atoms: _56  and  _57
REMARK   26  A    between atoms: _59  and  _61
REMARK   27  A    between atoms: _61  and  _62
REMARK   28  A    between atoms: _65  and  _67
REMARK   29  A    between atoms: _67  and  _68
REMARK   30  A    between atoms: _67  and  _70
REMARK   31  A    between atoms: _70  and  _71
REMARK   32  A    between atoms: _74  and  _76
REMARK   33  A    between atoms: _76  and  _77
REMARK   34  A    between atoms: _76  and  _79
REMARK   35  A    between atoms: _79  and  _80
REMARK   36  A    between atoms: _83  and  _85
REMARK   37  A    between atoms: _85  and  _86
REMARK   38  A    between atoms: _85  and  _88
REMARK   39  A    between atoms: _88  and  _89
REMARK   40  A    between atoms: _92  and  _94
REMARK   41  A    between atoms: _94  and  _95
REMARK   42  A    between atoms: _94  and  _97
REMARK   43  A    between atoms: _100  and  _102
REMARK   44  A    between atoms: _102  and  _103
REMARK   45  A    between atoms: _102  and  _105
REMARK   46  A    between atoms: _105  and  _106
REMARK   47  A    between atoms: _106  and  _107
REMARK   48  A    between atoms: _107  and  _108
REMARK   49  A    between atoms: _108  and  _109
REMARK   50  A    between atoms: _113  and  _115
REMARK   51  A    between atoms: _115  and  _116
REMARK   52  A    between atoms: _115  and  _118
REMARK   53  A    between atoms: _118  and  _119
REMARK   54  A    between atoms: _119  and  _120
REMARK   55  A    between atoms: _122  and  _124
REMARK   56  A    between atoms: _124  and  _125
REMARK   57  A    between atoms: _124  and  _127
REMARK   58  A    between atoms: _127  and  _128
REMARK   59  A    between atoms: _131  and  _133
REMARK   60  A    between atoms: _133  and  _134
REMARK   61  A    between atoms: _136  and  _138
REMARK   62  A    between atoms: _138  and  _139
REMARK   63  A    between atoms: _141  and  _143
REMARK   64  A    between atoms: _143  and  _144
REMARK   65  A    between atoms: _143  and  _146
REMARK   66  A    between atoms: _146  and  _147
REMARK   67  A    between atoms: _150  and  _152
REMARK   68  A    between atoms: _152  and  _153
REMARK   69  A    between atoms: _155  and  _157
REMARK   70  A    between atoms: _157  and  _158
REMARK   71  A    between atoms: _160  and  _162
REMARK   72  A    between atoms: _162  and  _163
REMARK   73  A    between atoms: _162  and  _165
REMARK   74  A    between atoms: _165  and  _166
REMARK   75  A    between atoms: _172  and  _174
REMARK   76  A    between atoms: _174  and  _175
REMARK   77  A    between atoms: _174  and  _177
REMARK   78  A    between atoms: _177  and  _178
REMARK   79  A    between atoms: _181  and  _183
REMARK   80  A    between atoms: _183  and  _184
REMARK   81  A    between atoms: _183  and  _186
REMARK   82  A    between atoms: _189  and  _191
REMARK   83  A    between atoms: _191  and  _192
REMARK   84  A    between atoms: _191  and  _194
REMARK   85  A    between atoms: _194  and  _195
REMARK   86  A    between atoms: _198  and  _200
REMARK   87  A    between atoms: _200  and  _201
REMARK   88  A    between atoms: _200  and  _203
REMARK   89  A    between atoms: _203  and  _204
REMARK   90  A    between atoms: _208  and  _209
REMARK   91  A    between atoms: _214  and  _216
REMARK   92  A    between atoms: _216  and  _217
REMARK   93  A    between atoms: _216  and  _219
REMARK   94  A    between atoms: _222  and  _224
REMARK   95  A    between atoms: _224  and  _225
REMARK   96  A    between atoms: _224  and  _227
REMARK   97  A    between atoms: _227  and  _228
REMARK   98  A    between atoms: _233  and  _235
REMARK   99  A    between atoms: _235  and  _236
REMARK  100  A    between atoms: _235  and  _238
REMARK  101  A    between atoms: _238  and  _239
REMARK  102  A    between atoms: _242  and  _244
REMARK  103  A    between atoms: _244  and  _245
REMARK  104  A    between atoms: _244  and  _247
REMARK  105  A    between atoms: _247  and  _248
REMARK  106  A    between atoms: _251  and  _253
REMARK  107  A    between atoms: _253  and  _254
REMARK  108  A    between atoms: _256  and  _258
REMARK  109  A    between atoms: _258  and  _259
REMARK  110  A    between atoms: _258  and  _261
REMARK  111  A    between atoms: _261  and  _262
REMARK  112  A    between atoms: _262  and  _263
REMARK  113  A    between atoms: _263  and  _264
REMARK  114  A    between atoms: _273  and  _275
REMARK  115  A    between atoms: _275  and  _276
REMARK  116  A    between atoms: _275  and  _278
REMARK  117  A    between atoms: _278  and  _279
REMARK  118  A    between atoms: _284  and  _286
REMARK  119  A    between atoms: _286  and  _287
REMARK  120  A    between atoms: _286  and  _289
REMARK  121  A    between atoms: _289  and  _290
REMARK  122  A    between atoms: _290  and  _291
REMARK  123  A    between atoms: _291  and  _292
REMARK  124  A    between atoms: _301  and  _303
REMARK  125  A    between atoms: _303  and  _304
REMARK  126  A    between atoms: _303  and  _306
REMARK  127  A    between atoms: _306  and  _307
REMARK  128  A    between atoms: _310  and  _312
REMARK  129  A    between atoms: _312  and  _313
REMARK  130  A    between atoms: _312  and  _315
REMARK  131  A    between atoms: _315  and  _316
REMARK  132  A    between atoms: _319  and  _321
REMARK  133  A    between atoms: _321  and  _322
REMARK  134  A    between atoms: _321  and  _324
REMARK  135  A    between atoms: _324  and  _325
REMARK  136  A    between atoms: _328  and  _330
REMARK  137  A    between atoms: _330  and  _331
REMARK  138  A    between atoms: _330  and  _333
REMARK  139  A    between atoms: _333  and  _334
REMARK  140  A    between atoms: _337  and  _339
REMARK  141  A    between atoms: _339  and  _340
REMARK  142  A    between atoms: _342  and  _344
REMARK  143  A    between atoms: _344  and  _345
REMARK  144  A    between atoms: _348  and  _350
REMARK  145  A    between atoms: _350  and  _351
REMARK  146  A    between atoms: _350  and  _353
REMARK  147  A    between atoms: _353  and  _354
REMARK  148  A    between atoms: _357  and  _359
REMARK  149  A    between atoms: _359  and  _360
REMARK  150  A    between atoms: _359  and  _362
REMARK  151  A    between atoms: _362  and  _363
REMARK  152  A    between atoms: _366  and  _368
REMARK  153  A    between atoms: _368  and  _369
REMARK  154  A    between atoms: _368  and  _371
REMARK  155  A    between atoms: _371  and  _372
REMARK  156  A    between atoms: _375  and  _377
REMARK  157  A    between atoms: _377  and  _378
REMARK  158  A    between atoms: _377  and  _380
REMARK  159  A    between atoms: _383  and  _385
REMARK  160  A    between atoms: _385  and  _386
REMARK  161  A    between atoms: _385  and  _388
REMARK  162  A    between atoms: _388  and  _389
REMARK  163  A    between atoms: _389  and  _390
REMARK  164  A    between atoms: _390  and  _391
REMARK  165  A    between atoms: _391  and  _392
REMARK  166  A    between atoms: _396  and  _398
REMARK  167  A    between atoms: _398  and  _399
REMARK  168  A    between atoms: _398  and  _401
REMARK  169  A    between atoms: _401  and  _402
REMARK  170  A    between atoms: _402  and  _403
REMARK  171  A    between atoms: _405  and  _407
REMARK  172  A    between atoms: _407  and  _408
REMARK  173  A    between atoms: _407  and  _410
REMARK  174  A    between atoms: _410  and  _411
REMARK  175  A    between atoms: _414  and  _416
REMARK  176  A    between atoms: _416  and  _417
REMARK  177  A    between atoms: _419  and  _421
REMARK  178  A    between atoms: _421  and  _422
REMARK  179  A    between atoms: _424  and  _426
REMARK  180  A    between atoms: _426  and  _427
REMARK  181  A    between atoms: _426  and  _429
REMARK  182  A    between atoms: _429  and  _430
REMARK  183  A    between atoms: _433  and  _435
REMARK  184  A    between atoms: _435  and  _436
REMARK  185  A    between atoms: _438  and  _440
REMARK  186  A    between atoms: _440  and  _441
REMARK  187  A    between atoms: _443  and  _445
REMARK  188  A    between atoms: _445  and  _446
REMARK  189  A    between atoms: _445  and  _448
REMARK  190  A    between atoms: _448  and  _449
REMARK  191  A    between atoms: _455  and  _457
REMARK  192  A    between atoms: _457  and  _458
REMARK  193  A    between atoms: _457  and  _460
REMARK  194  A    between atoms: _460  and  _461
REMARK  195  A    between atoms: _464  and  _466
REMARK  196  A    between atoms: _466  and  _467
REMARK  197  A    between atoms: _466  and  _469
REMARK  198  A    between atoms: _472  and  _474
REMARK  199  A    between atoms: _474  and  _475
REMARK  200  A    between atoms: _474  and  _477
REMARK  201  A    between atoms: _477  and  _478
REMARK  202  A    between atoms: _481  and  _483
REMARK  203  A    between atoms: _483  and  _484
REMARK  204  A    between atoms: _483  and  _486
REMARK  205  A    between atoms: _486  and  _487
REMARK  206  A    between atoms: _491  and  _492
REMARK  207  A    between atoms: _497  and  _499
REMARK  208  A    between atoms: _499  and  _500
REMARK  209  A    between atoms: _499  and  _502
REMARK  210  A    between atoms: _505  and  _507
REMARK  211  A    between atoms: _507  and  _508
REMARK  212  A    between atoms: _507  and  _510
REMARK  213  A    between atoms: _510  and  _511
REMARK  214  A    between atoms: _516  and  _518
REMARK  215  A    between atoms: _518  and  _519
REMARK  216  A    between atoms: _518  and  _521
REMARK  217  A    between atoms: _521  and  _522
REMARK  218  A    between atoms: _525  and  _527
REMARK  219  A    between atoms: _527  and  _528
REMARK  220  A    between atoms: _527  and  _530
REMARK  221  A    between atoms: _530  and  _531
REMARK  222  A    between atoms: _534  and  _536
REMARK  223  A    between atoms: _536  and  _537
REMARK  224  A    between atoms: _539  and  _541
REMARK  225  A    between atoms: _541  and  _542
REMARK  226  A    between atoms: _541  and  _544
REMARK  227  A    between atoms: _544  and  _545
REMARK  228  A    between atoms: _545  and  _546
REMARK  229  A    between atoms: _546  and  _547
REMARK  230  A    between atoms: _556  and  _558
REMARK  231  A    between atoms: _558  and  _559
REMARK  232  A    between atoms: _558  and  _561
REMARK  233  A    between atoms: _561  and  _562
REMARK                            x       y       z     vdW  Elec       q    Type
REMARK                         _______ _______ _______ _____ _____    ______ ____
ROOT
ATOM      1  O   HOH     1      25.362  33.989  11.515  0.00  0.00    +0.000 OA
ENDROOT
TORSDOF 0
REMARK  Name = ../refined-set-2016/2z4o/2z4o_pocket.pdb
REMARK  233 active torsions:
REMARK  status: ('A' for Active; 'I' for Inactive)
REMARK    1  A    between atoms: _1  and  _3
REMARK    2  A    between atoms: _3  and  _4
REMARK    3  A    between atoms: _3  and  _6
REMARK    4  A    between atoms: _6  and  _7
REMARK    5  A    between atoms: _7  and  _8
REMARK    6  A    between atoms: _8  and  _9
REMARK    7  A    between atoms: _11  and  _15
REMARK    8  A    between atoms: _18  and  _20
REMARK    9  A    between atoms: _20  and  _21
REMARK   10  A    between atoms: _20  and  _23
REMARK   11  A    between atoms: _23  and  _24
REMARK   12  A    between atoms: _27  and  _29
REMARK   13  A    between atoms: _29  and  _30
REMARK   14  A    between atoms: _29  and  _32
REMARK   15  A    between atoms: _32  and  _33
REMARK   16  A    between atoms: _36  and  _38
REMARK   17  A    between atoms: _38  and  _39
REMARK   18  A    between atoms: _38  and  _41
REMARK   19  A    between atoms: _41  and  _42
REMARK   20  A    between atoms: _45  and  _47
REMARK   21  A    between atoms: _47  and  _48
REMARK   22  A    between atoms: _47  and  _50
REMARK   23  A    between atoms: _50  and  _51
REMARK   24  A    between atoms: _54  and  _56
REMARK   25  A    between atoms: _56  and  _57
REMARK   26  A    between atoms: _59  and  _61
REMARK   27  A    between atoms: _61  and  _62
REMARK   28  A    between atoms: _65  and  _67
REMARK   29  A    between atoms: _67  and  _68
REMARK   30  A    between atoms: _67  and  _70
REMARK   31  A    between atoms: _70  and  _71
REMARK   32  A    between atoms: _74  and  _76
REMARK   33  A    between atoms: _76  and  _77
REMARK   34  A    between atoms: _76  and  _79
REMARK   35  A    between atoms: _79  and  _80
REMARK   36  A    between atoms: _83  and  _85
REMARK   37  A    between atoms: _85  and  _86
REMARK   38  A    between atoms: _85  and  _88
REMARK   39  A    between atoms: _88  and  _89
REMARK   40  A    between atoms: _92  and  _94
REMARK   41  A    between atoms: _94  and  _95
REMARK   42  A    between atoms: _94  and  _97
REMARK   43  A    between atoms: _100  and  _102
REMARK   44  A    between atoms: _102  and  _103
REMARK   45  A    between atoms: _102  and  _105
REMARK   46  A    between atoms: _105  and  _106
REMARK   47  A    between atoms: _106  and  _107
REMARK   48  A    between atoms: _107  and  _108
REMARK   49  A    between atoms: _108  and  _109
REMARK   50  A    between atoms: _113  and  _115
REMARK   51  A    between atoms: _115  and  _116
REMARK   52  A    between atoms: _115  and  _118
REMARK   53  A    between atoms: _118  and  _119
REMARK   54  A    between atoms: _119  and  _120
REMARK   55  A    between atoms: _122  and  _124
REMARK   56  A    between atoms: _124  and  _125
REMARK   57  A    between atoms: _124  and  _127
REMARK   58  A    between atoms: _127  and  _128
REMARK   59  A    between atoms: _131  and  _133
REMARK   60  A    between atoms: _133  and  _134
REMARK   61  A    between atoms: _136  and  _138
REMARK   62  A    between atoms: _138  and  _139
REMARK   63  A    between atoms: _141  and  _143
REMARK   64  A    between atoms: _143  and  _144
REMARK   65  A    between atoms: _143  and  _146
REMARK   66  A    between atoms: _146  and  _147
REMARK   67  A    between atoms: _150  and  _152
REMARK   68  A    between atoms: _152  and  _153
REMARK   69  A    between atoms: _155  and  _157
REMARK   70  A    between atoms: _157  and  _158
REMARK   71  A    between atoms: _160  and  _162
REMARK   72  A    between atoms: _162  and  _163
REMARK   73  A    between atoms: _162  and  _165
REMARK   74  A    between atoms: _165  and  _166
REMARK   75  A    between atoms: _172  and  _174
REMARK   76  A    between atoms: _174  and  _175
REMARK   77  A    between atoms: _174  and  _177
REMARK   78  A    between atoms: _177  and  _178
REMARK   79  A    between atoms: _181  and  _183
REMARK   80  A    between atoms: _183  and  _184
REMARK   81  A    between atoms: _183  and  _186
REMARK   82  A    between atoms: _189  and  _191
REMARK   83  A    between atoms: _191  and  _192
REMARK   84  A    between atoms: _191  and  _194
REMARK   85  A    between atoms: _194  and  _195
REMARK   86  A    between atoms: _198  and  _200
REMARK   87  A    between atoms: _200  and  _201
REMARK   88  A    between atoms: _200  and  _203
REMARK   89  A    between atoms: _203  and  _204
REMARK   90  A    between atoms: _208  and  _209
REMARK   91  A    between atoms: _214  and  _216
REMARK   92  A    between atoms: _216  and  _217
REMARK   93  A    between atoms: _216  and  _219
REMARK   94  A    between atoms: _222  and  _224
REMARK   95  A    between atoms: _224  and  _225
REMARK   96  A    between atoms: _224  and  _227
REMARK   97  A    between atoms: _227  and  _228
REMARK   98  A    between atoms: _233  and  _235
REMARK   99  A    between atoms: _235  and  _236
REMARK  100  A    between atoms: _235  and  _238
REMARK  101  A    between atoms: _238  and  _239
REMARK  102  A    between atoms: _242  and  _244
REMARK  103  A    between atoms: _244  and  _245
REMARK  104  A    between atoms: _244  and  _247
REMARK  105  A    between atoms: _247  and  _248
REMARK  106  A    between atoms: _251  and  _253
REMARK  107  A    between atoms: _253  and  _254
REMARK  108  A    between atoms: _256  and  _258
REMARK  109  A    between atoms: _258  and  _259
REMARK  110  A    between atoms: _258  and  _261
REMARK  111  A    between atoms: _261  and  _262
REMARK  112  A    between atoms: _262  and  _263
REMARK  113  A    between atoms: _263  and  _264
REMARK  114  A    between atoms: _273  and  _275
REMARK  115  A    between atoms: _275  and  _276
REMARK  116  A    between atoms: _275  and  _278
REMARK  117  A    between atoms: _278  and  _279
REMARK  118  A    between atoms: _284  and  _286
REMARK  119  A    between atoms: _286  and  _287
REMARK  120  A    between atoms: _286  and  _289
REMARK  121  A    between atoms: _289  and  _290
REMARK  122  A    between atoms: _290  and  _291
REMARK  123  A    between atoms: _291  and  _292
REMARK  124  A    between atoms: _301  and  _303
REMARK  125  A    between atoms: _303  and  _304
REMARK  126  A    between atoms: _303  and  _306
REMARK  127  A    between atoms: _306  and  _307
REMARK  128  A    between atoms: _310  and  _312
REMARK  129  A    between atoms: _312  and  _313
REMARK  130  A    between atoms: _312  and  _315
REMARK  131  A    between atoms: _315  and  _316
REMARK  132  A    between atoms: _319  and  _321
REMARK  133  A    between atoms: _321  and  _322
REMARK  134  A    between atoms: _321  and  _324
REMARK  135  A    between atoms: _324  and  _325
REMARK  136  A    between atoms: _328  and  _330
REMARK  137  A    between atoms: _330  and  _331
REMARK  138  A    between atoms: _330  and  _333
REMARK  139  A    between atoms: _333  and  _334
REMARK  140  A    between atoms: _337  and  _339
REMARK  141  A    between atoms: _339  and  _340
REMARK  142  A    between atoms: _342  and  _344
REMARK  143  A    between atoms: _344  and  _345
REMARK  144  A    between atoms: _348  and  _350
REMARK  145  A    between atoms: _350  and  _351
REMARK  146  A    between atoms: _350  and  _353
REMARK  147  A    between atoms: _353  and  _354
REMARK  148  A    between atoms: _357  and  _359
REMARK  149  A    between atoms: _359  and  _360
REMARK  150  A    between atoms: _359  and  _362
REMARK  151  A    between atoms: _362  and  _363
REMARK  152  A    between atoms: _366  and  _368
REMARK  153  A    between atoms: _368  and  _369
REMARK  154  A    between atoms: _368  and  _371
REMARK  155  A    between atoms: _371  and  _372
REMARK  156  A    between atoms: _375  and  _377
REMARK  157  A    between atoms: _377  and  _378
REMARK  158  A    between atoms: _377  and  _380
REMARK  159  A    between atoms: _383  and  _385
REMARK  160  A    between atoms: _385  and  _386
REMARK  161  A    between atoms: _385  and  _388
REMARK  162  A    between atoms: _388  and  _389
REMARK  163  A    between atoms: _389  and  _390
REMARK  164  A    between atoms: _390  and  _391
REMARK  165  A    between atoms: _391  and  _392
REMARK  166  A    between atoms: _396  and  _398
REMARK  167  A    between atoms: _398  and  _399
REMARK  168  A    between atoms: _398  and  _401
REMARK  169  A    between atoms: _401  and  _402
REMARK  170  A    between atoms: _402  and  _403
REMARK  171  A    between atoms: _405  and  _407
REMARK  172  A    between atoms: _407  and  _408
REMARK  173  A    between atoms: _407  and  _410
REMARK  174  A    between atoms: _410  and  _411
REMARK  175  A    between atoms: _414  and  _416
REMARK  176  A    between atoms: _416  and  _417
REMARK  177  A    between atoms: _419  and  _421
REMARK  178  A    between atoms: _421  and  _422
REMARK  179  A    between atoms: _424  and  _426
REMARK  180  A    between atoms: _426  and  _427
REMARK  181  A    between atoms: _426  and  _429
REMARK  182  A    between atoms: _429  and  _430
REMARK  183  A    between atoms: _433  and  _435
REMARK  184  A    between atoms: _435  and  _436
REMARK  185  A    between atoms: _438  and  _440
REMARK  186  A    between atoms: _440  and  _441
REMARK  187  A    between atoms: _443  and  _445
REMARK  188  A    between atoms: _445  and  _446
REMARK  189  A    between atoms: _445  and  _448
REMARK  190  A    between atoms: _448  and  _449
REMARK  191  A    between atoms: _455  and  _457
REMARK  192  A    between atoms: _457  and  _458
REMARK  193  A    between atoms: _457  and  _460
REMARK  194  A    between atoms: _460  and  _461
REMARK  195  A    between atoms: _464  and  _466
REMARK  196  A    between atoms: _466  and  _467
REMARK  197  A    between atoms: _466  and  _469
REMARK  198  A    between atoms: _472  and  _474
REMARK  199  A    between atoms: _474  and  _475
REMARK  200  A    between atoms: _474  and  _477
REMARK  201  A    between atoms: _477  and  _478
REMARK  202  A    between atoms: _481  and  _483
REMARK  203  A    between atoms: _483  and  _484
REMARK  204  A    between atoms: _483  and  _486
REMARK  205  A    between atoms: _486  and  _487
REMARK  206  A    between atoms: _491  and  _492
REMARK  207  A    between atoms: _497  and  _499
REMARK  208  A    between atoms: _499  and  _500
REMARK  209  A    between atoms: _499  and  _502
REMARK  210  A    between atoms: _505  and  _507
REMARK  211  A    between atoms: _507  and  _508
REMARK  212  A    between atoms: _507  and  _510
REMARK  213  A    between atoms: _510  and  _511
REMARK  214  A    between atoms: _516  and  _518
REMARK  215  A    between atoms: _518  and  _519
REMARK  216  A    between atoms: _518  and  _521
REMARK  217  A    between atoms: _521  and  _522
REMARK  218  A    between atoms: _525  and  _527
REMARK  219  A    between atoms: _527  and  _528
REMARK  220  A    between atoms: _527  and  _530
REMARK  221  A    between atoms: _530  and  _531
REMARK  222  A    between atoms: _534  and  _536
REMARK  223  A    between atoms: _536  and  _537
REMARK  224  A    between atoms: _539  and  _541
REMARK  225  A    between atoms: _541  and  _542
REMARK  226  A    between atoms: _541  and  _544
REMARK  227  A    between atoms: _544  and  _545
REMARK  228  A    between atoms: _545  and  _546
REMARK  229  A    between atoms: _546  and  _547
REMARK  230  A    between atoms: _556  and  _558
REMARK  231  A    between atoms: _558  and  _559
REMARK  232  A    between atoms: _558  and  _561
REMARK  233  A    between atoms: _561  and  _562
REMARK                            x       y       z     vdW  Elec       q    Type
REMARK                         _______ _______ _______ _____ _____    ______ ____
ROOT
ATOM      1  O   HOH     1      22.550  34.659  12.610  0.00  0.00    +0.000 OA
ENDROOT
TORSDOF 0
REMARK  Name = ../refined-set-2016/2z4o/2z4o_pocket.pdb
REMARK  233 active torsions:
REMARK  status: ('A' for Active; 'I' for Inactive)
REMARK    1  A    between atoms: _1  and  _3
REMARK    2  A    between atoms: _3  and  _4
REMARK    3  A    between atoms: _3  and  _6
REMARK    4  A    between atoms: _6  and  _7
REMARK    5  A    between atoms: _7  and  _8
REMARK    6  A    between atoms: _8  and  _9
REMARK    7  A    between atoms: _11  and  _15
REMARK    8  A    between atoms: _18  and  _20
REMARK    9  A    between atoms: _20  and  _21
REMARK   10  A    between atoms: _20  and  _23
REMARK   11  A    between atoms: _23  and  _24
REMARK   12  A    between atoms: _27  and  _29
REMARK   13  A    between atoms: _29  and  _30
REMARK   14  A    between atoms: _29  and  _32
REMARK   15  A    between atoms: _32  and  _33
REMARK   16  A    between atoms: _36  and  _38
REMARK   17  A    between atoms: _38  and  _39
REMARK   18  A    between atoms: _38  and  _41
REMARK   19  A    between atoms: _41  and  _42
REMARK   20  A    between atoms: _45  and  _47
REMARK   21  A    between atoms: _47  and  _48
REMARK   22  A    between atoms: _47  and  _50
REMARK   23  A    between atoms: _50  and  _51
REMARK   24  A    between atoms: _54  and  _56
REMARK   25  A    between atoms: _56  and  _57
REMARK   26  A    between atoms: _59  and  _61
REMARK   27  A    between atoms: _61  and  _62
REMARK   28  A    between atoms: _65  and  _67
REMARK   29  A    between atoms: _67  and  _68
REMARK   30  A    between atoms: _67  and  _70
REMARK   31  A    between atoms: _70  and  _71
REMARK   32  A    between atoms: _74  and  _76
REMARK   33  A    between atoms: _76  and  _77
REMARK   34  A    between atoms: _76  and  _79
REMARK   35  A    between atoms: _79  and  _80
REMARK   36  A    between atoms: _83  and  _85
REMARK   37  A    between atoms: _85  and  _86
REMARK   38  A    between atoms: _85  and  _88
REMARK   39  A    between atoms: _88  and  _89
REMARK   40  A    between atoms: _92  and  _94
REMARK   41  A    between atoms: _94  and  _95
REMARK   42  A    between atoms: _94  and  _97
REMARK   43  A    between atoms: _100  and  _102
REMARK   44  A    between atoms: _102  and  _103
REMARK   45  A    between atoms: _102  and  _105
REMARK   46  A    between atoms: _105  and  _106
REMARK   47  A    between atoms: _106  and  _107
REMARK   48  A    between atoms: _107  and  _108
REMARK   49  A    between atoms: _108  and  _109
REMARK   50  A    between atoms: _113  and  _115
REMARK   51  A    between atoms: _115  and  _116
REMARK   52  A    between atoms: _115  and  _118
REMARK   53  A    between atoms: _118  and  _119
REMARK   54  A    between atoms: _119  and  _120
REMARK   55  A    between atoms: _122  and  _124
REMARK   56  A    between atoms: _124  and  _125
REMARK   57  A    between atoms: _124  and  _127
REMARK   58  A    between atoms: _127  and  _128
REMARK   59  A    between atoms: _131  and  _133
REMARK   60  A    between atoms: _133  and  _134
REMARK   61  A    between atoms: _136  and  _138
REMARK   62  A    between atoms: _138  and  _139
REMARK   63  A    between atoms: _141  and  _143
REMARK   64  A    between atoms: _143  and  _144
REMARK   65  A    between atoms: _143  and  _146
REMARK   66  A    between atoms: _146  and  _147
REMARK   67  A    between atoms: _150  and  _152
REMARK   68  A    between atoms: _152  and  _153
REMARK   69  A    between atoms: _155  and  _157
REMARK   70  A    between atoms: _157  and  _158
REMARK   71  A    between atoms: _160  and  _162
REMARK   72  A    between atoms: _162  and  _163
REMARK   73  A    between atoms: _162  and  _165
REMARK   74  A    between atoms: _165  and  _166
REMARK   75  A    between atoms: _172  and  _174
REMARK   76  A    between atoms: _174  and  _175
REMARK   77  A    between atoms: _174  and  _177
REMARK   78  A    between atoms: _177  and  _178
REMARK   79  A    between atoms: _181  and  _183
REMARK   80  A    between atoms: _183  and  _184
REMARK   81  A    between atoms: _183  and  _186
REMARK   82  A    between atoms: _189  and  _191
REMARK   83  A    between atoms: _191  and  _192
REMARK   84  A    between atoms: _191  and  _194
REMARK   85  A    between atoms: _194  and  _195
REMARK   86  A    between atoms: _198  and  _200
REMARK   87  A    between atoms: _200  and  _201
REMARK   88  A    between atoms: _200  and  _203
REMARK   89  A    between atoms: _203  and  _204
REMARK   90  A    between atoms: _208  and  _209
REMARK   91  A    between atoms: _214  and  _216
REMARK   92  A    between atoms: _216  and  _217
REMARK   93  A    between atoms: _216  and  _219
REMARK   94  A    between atoms: _222  and  _224
REMARK   95  A    between atoms: _224  and  _225
REMARK   96  A    between atoms: _224  and  _227
REMARK   97  A    between atoms: _227  and  _228
REMARK   98  A    between atoms: _233  and  _235
REMARK   99  A    between atoms: _235  and  _236
REMARK  100  A    between atoms: _235  and  _238
REMARK  101  A    between atoms: _238  and  _239
REMARK  102  A    between atoms: _242  and  _244
REMARK  103  A    between atoms: _244  and  _245
REMARK  104  A    between atoms: _244  and  _247
REMARK  105  A    between atoms: _247  and  _248
REMARK  106  A    between atoms: _251  and  _253
REMARK  107  A    between atoms: _253  and  _254
REMARK  108  A    between atoms: _256  and  _258
REMARK  109  A    between atoms: _258  and  _259
REMARK  110  A    between atoms: _258  and  _261
REMARK  111  A    between atoms: _261  and  _262
REMARK  112  A    between atoms: _262  and  _263
REMARK  113  A    between atoms: _263  and  _264
REMARK  114  A    between atoms: _273  and  _275
REMARK  115  A    between atoms: _275  and  _276
REMARK  116  A    between atoms: _275  and  _278
REMARK  117  A    between atoms: _278  and  _279
REMARK  118  A    between atoms: _284  and  _286
REMARK  119  A    between atoms: _286  and  _287
REMARK  120  A    between atoms: _286  and  _289
REMARK  121  A    between atoms: _289  and  _290
REMARK  122  A    between atoms: _290  and  _291
REMARK  123  A    between atoms: _291  and  _292
REMARK  124  A    between atoms: _301  and  _303
REMARK  125  A    between atoms: _303  and  _304
REMARK  126  A    between atoms: _303  and  _306
REMARK  127  A    between atoms: _306  and  _307
REMARK  128  A    between atoms: _310  and  _312
REMARK  129  A    between atoms: _312  and  _313
REMARK  130  A    between atoms: _312  and  _315
REMARK  131  A    between atoms: _315  and  _316
REMARK  132  A    between atoms: _319  and  _321
REMARK  133  A    between atoms: _321  and  _322
REMARK  134  A    between atoms: _321  and  _324
REMARK  135  A    between atoms: _324  and  _325
REMARK  136  A    between atoms: _328  and  _330
REMARK  137  A    between atoms: _330  and  _331
REMARK  138  A    between atoms: _330  and  _333
REMARK  139  A    between atoms: _333  and  _334
REMARK  140  A    between atoms: _337  and  _339
REMARK  141  A    between atoms: _339  and  _340
REMARK  142  A    between atoms: _342  and  _344
REMARK  143  A    between atoms: _344  and  _345
REMARK  144  A    between atoms: _348  and  _350
REMARK  145  A    between atoms: _350  and  _351
REMARK  146  A    between atoms: _350  and  _353
REMARK  147  A    between atoms: _353  and  _354
REMARK  148  A    between atoms: _357  and  _359
REMARK  149  A    between atoms: _359  and  _360
REMARK  150  A    between atoms: _359  and  _362
REMARK  151  A    between atoms: _362  and  _363
REMARK  152  A    between atoms: _366  and  _368
REMARK  153  A    between atoms: _368  and  _369
REMARK  154  A    between atoms: _368  and  _371
REMARK  155  A    between atoms: _371  and  _372
REMARK  156  A    between atoms: _375  and  _377
REMARK  157  A    between atoms: _377  and  _378
REMARK  158  A    between atoms: _377  and  _380
REMARK  159  A    between atoms: _383  and  _385
REMARK  160  A    between atoms: _385  and  _386
REMARK  161  A    between atoms: _385  and  _388
REMARK  162  A    between atoms: _388  and  _389
REMARK  163  A    between atoms: _389  and  _390
REMARK  164  A    between atoms: _390  and  _391
REMARK  165  A    between atoms: _391  and  _392
REMARK  166  A    between atoms: _396  and  _398
REMARK  167  A    between atoms: _398  and  _399
REMARK  168  A    between atoms: _398  and  _401
REMARK  169  A    between atoms: _401  and  _402
REMARK  170  A    between atoms: _402  and  _403
REMARK  171  A    between atoms: _405  and  _407
REMARK  172  A    between atoms: _407  and  _408
REMARK  173  A    between atoms: _407  and  _410
REMARK  174  A    between atoms: _410  and  _411
REMARK  175  A    between atoms: _414  and  _416
REMARK  176  A    between atoms: _416  and  _417
REMARK  177  A    between atoms: _419  and  _421
REMARK  178  A    between atoms: _421  and  _422
REMARK  179  A    between atoms: _424  and  _426
REMARK  180  A    between atoms: _426  and  _427
REMARK  181  A    between atoms: _426  and  _429
REMARK  182  A    between atoms: _429  and  _430
REMARK  183  A    between atoms: _433  and  _435
REMARK  184  A    between atoms: _435  and  _436
REMARK  185  A    between atoms: _438  and  _440
REMARK  186  A    between atoms: _440  and  _441
REMARK  187  A    between atoms: _443  and  _445
REMARK  188  A    between atoms: _445  and  _446
REMARK  189  A    between atoms: _445  and  _448
REMARK  190  A    between atoms: _448  and  _449
REMARK  191  A    between atoms: _455  and  _457
REMARK  192  A    between atoms: _457  and  _458
REMARK  193  A    between atoms: _457  and  _460
REMARK  194  A    between atoms: _460  and  _461
REMARK  195  A    between atoms: _464  and  _466
REMARK  196  A    between atoms: _466  and  _467
REMARK  197  A    between atoms: _466  and  _469
REMARK  198  A    between atoms: _472  and  _474
REMARK  199  A    between atoms: _474  and  _475
REMARK  200  A    between atoms: _474  and  _477
REMARK  201  A    between atoms: _477  and  _478
REMARK  202  A    between atoms: _481  and  _483
REMARK  203  A    between atoms: _483  and  _484
REMARK  204  A    between atoms: _483  and  _486
REMARK  205  A    between atoms: _486  and  _487
REMARK  206  A    between atoms: _491  and  _492
REMARK  207  A    between atoms: _497  and  _499
REMARK  208  A    between atoms: _499  and  _500
REMARK  209  A    between atoms: _499  and  _502
REMARK  210  A    between atoms: _505  and  _507
REMARK  211  A    between atoms: _507  and  _508
REMARK  212  A    between atoms: _507  and  _510
REMARK  213  A    between atoms: _510  and  _511
REMARK  214  A    between atoms: _516  and  _518
REMARK  215  A    between atoms: _518  and  _519
REMARK  216  A    between atoms: _518  and  _521
REMARK  217  A    between atoms: _521  and  _522
REMARK  218  A    between atoms: _525  and  _527
REMARK  219  A    between atoms: _527  and  _528
REMARK  220  A    between atoms: _527  and  _530
REMARK  221  A    between atoms: _530  and  _531
REMARK  222  A    between atoms: _534  and  _536
REMARK  223  A    between atoms: _536  and  _537
REMARK  224  A    between atoms: _539  and  _541
REMARK  225  A    between atoms: _541  and  _542
REMARK  226  A    between atoms: _541  and  _544
REMARK  227  A    between atoms: _544  and  _545
REMARK  228  A    between atoms: _545  and  _546
REMARK  229  A    between atoms: _546  and  _547
REMARK  230  A    between atoms: _556  and  _558
REMARK  231  A    between atoms: _558  and  _559
REMARK  232  A    between atoms: _558  and  _561
REMARK  233  A    between atoms: _561  and  _562
REMARK                            x       y       z     vdW  Elec       q    Type
REMARK                         _______ _______ _______ _____ _____    ______ ____
ROOT
ATOM      1  O   HOH     1      25.710  30.983  15.163  0.00  0.00    +0.000 OA
ENDROOT
TORSDOF 0
REMARK  Name = ../refined-set-2016/2z4o/2z4o_pocket.pdb
REMARK  233 active torsions:
REMARK  status: ('A' for Active; 'I' for Inactive)
REMARK    1  A    between atoms: _1  and  _3
REMARK    2  A    between atoms: _3  and  _4
REMARK    3  A    between atoms: _3  and  _6
REMARK    4  A    between atoms: _6  and  _7
REMARK    5  A    between atoms: _7  and  _8
REMARK    6  A    between atoms: _8  and  _9
REMARK    7  A    between atoms: _11  and  _15
REMARK    8  A    between atoms: _18  and  _20
REMARK    9  A    between atoms: _20  and  _21
REMARK   10  A    between atoms: _20  and  _23
REMARK   11  A    between atoms: _23  and  _24
REMARK   12  A    between atoms: _27  and  _29
REMARK   13  A    between atoms: _29  and  _30
REMARK   14  A    between atoms: _29  and  _32
REMARK   15  A    between atoms: _32  and  _33
REMARK   16  A    between atoms: _36  and  _38
REMARK   17  A    between atoms: _38  and  _39
REMARK   18  A    between atoms: _38  and  _41
REMARK   19  A    between atoms: _41  and  _42
REMARK   20  A    between atoms: _45  and  _47
REMARK   21  A    between atoms: _47  and  _48
REMARK   22  A    between atoms: _47  and  _50
REMARK   23  A    between atoms: _50  and  _51
REMARK   24  A    between atoms: _54  and  _56
REMARK   25  A    between atoms: _56  and  _57
REMARK   26  A    between atoms: _59  and  _61
REMARK   27  A    between atoms: _61  and  _62
REMARK   28  A    between atoms: _65  and  _67
REMARK   29  A    between atoms: _67  and  _68
REMARK   30  A    between atoms: _67  and  _70
REMARK   31  A    between atoms: _70  and  _71
REMARK   32  A    between atoms: _74  and  _76
REMARK   33  A    between atoms: _76  and  _77
REMARK   34  A    between atoms: _76  and  _79
REMARK   35  A    between atoms: _79  and  _80
REMARK   36  A    between atoms: _83  and  _85
REMARK   37  A    between atoms: _85  and  _86
REMARK   38  A    between atoms: _85  and  _88
REMARK   39  A    between atoms: _88  and  _89
REMARK   40  A    between atoms: _92  and  _94
REMARK   41  A    between atoms: _94  and  _95
REMARK   42  A    between atoms: _94  and  _97
REMARK   43  A    between atoms: _100  and  _102
REMARK   44  A    between atoms: _102  and  _103
REMARK   45  A    between atoms: _102  and  _105
REMARK   46  A    between atoms: _105  and  _106
REMARK   47  A    between atoms: _106  and  _107
REMARK   48  A    between atoms: _107  and  _108
REMARK   49  A    between atoms: _108  and  _109
REMARK   50  A    between atoms: _113  and  _115
REMARK   51  A    between atoms: _115  and  _116
REMARK   52  A    between atoms: _115  and  _118
REMARK   53  A    between atoms: _118  and  _119
REMARK   54  A    between atoms: _119  and  _120
REMARK   55  A    between atoms: _122  and  _124
REMARK   56  A    between atoms: _124  and  _125
REMARK   57  A    between atoms: _124  and  _127
REMARK   58  A    between atoms: _127  and  _128
REMARK   59  A    between atoms: _131  and  _133
REMARK   60  A    between atoms: _133  and  _134
REMARK   61  A    between atoms: _136  and  _138
REMARK   62  A    between atoms: _138  and  _139
REMARK   63  A    between atoms: _141  and  _143
REMARK   64  A    between atoms: _143  and  _144
REMARK   65  A    between atoms: _143  and  _146
REMARK   66  A    between atoms: _146  and  _147
REMARK   67  A    between atoms: _150  and  _152
REMARK   68  A    between atoms: _152  and  _153
REMARK   69  A    between atoms: _155  and  _157
REMARK   70  A    between atoms: _157  and  _158
REMARK   71  A    between atoms: _160  and  _162
REMARK   72  A    between atoms: _162  and  _163
REMARK   73  A    between atoms: _162  and  _165
REMARK   74  A    between atoms: _165  and  _166
REMARK   75  A    between atoms: _172  and  _174
REMARK   76  A    between atoms: _174  and  _175
REMARK   77  A    between atoms: _174  and  _177
REMARK   78  A    between atoms: _177  and  _178
REMARK   79  A    between atoms: _181  and  _183
REMARK   80  A    between atoms: _183  and  _184
REMARK   81  A    between atoms: _183  and  _186
REMARK   82  A    between atoms: _189  and  _191
REMARK   83  A    between atoms: _191  and  _192
REMARK   84  A    between atoms: _191  and  _194
REMARK   85  A    between atoms: _194  and  _195
REMARK   86  A    between atoms: _198  and  _200
REMARK   87  A    between atoms: _200  and  _201
REMARK   88  A    between atoms: _200  and  _203
REMARK   89  A    between atoms: _203  and  _204
REMARK   90  A    between atoms: _208  and  _209
REMARK   91  A    between atoms: _214  and  _216
REMARK   92  A    between atoms: _216  and  _217
REMARK   93  A    between atoms: _216  and  _219
REMARK   94  A    between atoms: _222  and  _224
REMARK   95  A    between atoms: _224  and  _225
REMARK   96  A    between atoms: _224  and  _227
REMARK   97  A    between atoms: _227  and  _228
REMARK   98  A    between atoms: _233  and  _235
REMARK   99  A    between atoms: _235  and  _236
REMARK  100  A    between atoms: _235  and  _238
REMARK  101  A    between atoms: _238  and  _239
REMARK  102  A    between atoms: _242  and  _244
REMARK  103  A    between atoms: _244  and  _245
REMARK  104  A    between atoms: _244  and  _247
REMARK  105  A    between atoms: _247  and  _248
REMARK  106  A    between atoms: _251  and  _253
REMARK  107  A    between atoms: _253  and  _254
REMARK  108  A    between atoms: _256  and  _258
REMARK  109  A    between atoms: _258  and  _259
REMARK  110  A    between atoms: _258  and  _261
REMARK  111  A    between atoms: _261  and  _262
REMARK  112  A    between atoms: _262  and  _263
REMARK  113  A    between atoms: _263  and  _264
REMARK  114  A    between atoms: _273  and  _275
REMARK  115  A    between atoms: _275  and  _276
REMARK  116  A    between atoms: _275  and  _278
REMARK  117  A    between atoms: _278  and  _279
REMARK  118  A    between atoms: _284  and  _286
REMARK  119  A    between atoms: _286  and  _287
REMARK  120  A    between atoms: _286  and  _289
REMARK  121  A    between atoms: _289  and  _290
REMARK  122  A    between atoms: _290  and  _291
REMARK  123  A    between atoms: _291  and  _292
REMARK  124  A    between atoms: _301  and  _303
REMARK  125  A    between atoms: _303  and  _304
REMARK  126  A    between atoms: _303  and  _306
REMARK  127  A    between atoms: _306  and  _307
REMARK  128  A    between atoms: _310  and  _312
REMARK  129  A    between atoms: _312  and  _313
REMARK  130  A    between atoms: _312  and  _315
REMARK  131  A    between atoms: _315  and  _316
REMARK  132  A    between atoms: _319  and  _321
REMARK  133  A    between atoms: _321  and  _322
REMARK  134  A    between atoms: _321  and  _324
REMARK  135  A    between atoms: _324  and  _325
REMARK  136  A    between atoms: _328  and  _330
REMARK  137  A    between atoms: _330  and  _331
REMARK  138  A    between atoms: _330  and  _333
REMARK  139  A    between atoms: _333  and  _334
REMARK  140  A    between atoms: _337  and  _339
REMARK  141  A    between atoms: _339  and  _340
REMARK  142  A    between atoms: _342  and  _344
REMARK  143  A    between atoms: _344  and  _345
REMARK  144  A    between atoms: _348  and  _350
REMARK  145  A    between atoms: _350  and  _351
REMARK  146  A    between atoms: _350  and  _353
REMARK  147  A    between atoms: _353  and  _354
REMARK  148  A    between atoms: _357  and  _359
REMARK  149  A    between atoms: _359  and  _360
REMARK  150  A    between atoms: _359  and  _362
REMARK  151  A    between atoms: _362  and  _363
REMARK  152  A    between atoms: _366  and  _368
REMARK  153  A    between atoms: _368  and  _369
REMARK  154  A    between atoms: _368  and  _371
REMARK  155  A    between atoms: _371  and  _372
REMARK  156  A    between atoms: _375  and  _377
REMARK  157  A    between atoms: _377  and  _378
REMARK  158  A    between atoms: _377  and  _380
REMARK  159  A    between atoms: _383  and  _385
REMARK  160  A    between atoms: _385  and  _386
REMARK  161  A    between atoms: _385  and  _388
REMARK  162  A    between atoms: _388  and  _389
REMARK  163  A    between atoms: _389  and  _390
REMARK  164  A    between atoms: _390  and  _391
REMARK  165  A    between atoms: _391  and  _392
REMARK  166  A    between atoms: _396  and  _398
REMARK  167  A    between atoms: _398  and  _399
REMARK  168  A    between atoms: _398  and  _401
REMARK  169  A    between atoms: _401  and  _402
REMARK  170  A    between atoms: _402  and  _403
REMARK  171  A    between atoms: _405  and  _407
REMARK  172  A    between atoms: _407  and  _408
REMARK  173  A    between atoms: _407  and  _410
REMARK  174  A    between atoms: _410  and  _411
REMARK  175  A    between atoms: _414  and  _416
REMARK  176  A    between atoms: _416  and  _417
REMARK  177  A    between atoms: _419  and  _421
REMARK  178  A    between atoms: _421  and  _422
REMARK  179  A    between atoms: _424  and  _426
REMARK  180  A    between atoms: _426  and  _427
REMARK  181  A    between atoms: _426  and  _429
REMARK  182  A    between atoms: _429  and  _430
REMARK  183  A    between atoms: _433  and  _435
REMARK  184  A    between atoms: _435  and  _436
REMARK  185  A    between atoms: _438  and  _440
REMARK  186  A    between atoms: _440  and  _441
REMARK  187  A    between atoms: _443  and  _445
REMARK  188  A    between atoms: _445  and  _446
REMARK  189  A    between atoms: _445  and  _448
REMARK  190  A    between atoms: _448  and  _449
REMARK  191  A    between atoms: _455  and  _457
REMARK  192  A    between atoms: _457  and  _458
REMARK  193  A    between atoms: _457  and  _460
REMARK  194  A    between atoms: _460  and  _461
REMARK  195  A    between atoms: _464  and  _466
REMARK  196  A    between atoms: _466  and  _467
REMARK  197  A    between atoms: _466  and  _469
REMARK  198  A    between atoms: _472  and  _474
REMARK  199  A    between atoms: _474  and  _475
REMARK  200  A    between atoms: _474  and  _477
REMARK  201  A    between atoms: _477  and  _478
REMARK  202  A    between atoms: _481  and  _483
REMARK  203  A    between atoms: _483  and  _484
REMARK  204  A    between atoms: _483  and  _486
REMARK  205  A    between atoms: _486  and  _487
REMARK  206  A    between atoms: _491  and  _492
REMARK  207  A    between atoms: _497  and  _499
REMARK  208  A    between atoms: _499  and  _500
REMARK  209  A    between atoms: _499  and  _502
REMARK  210  A    between atoms: _505  and  _507
REMARK  211  A    between atoms: _507  and  _508
REMARK  212  A    between atoms: _507  and  _510
REMARK  213  A    between atoms: _510  and  _511
REMARK  214  A    between atoms: _516  and  _518
REMARK  215  A    between atoms: _518  and  _519
REMARK  216  A    between atoms: _518  and  _521
REMARK  217  A    between atoms: _521  and  _522
REMARK  218  A    between atoms: _525  and  _527
REMARK  219  A    between atoms: _527  and  _528
REMARK  220  A    between atoms: _527  and  _530
REMARK  221  A    between atoms: _530  and  _531
REMARK  222  A    between atoms: _534  and  _536
REMARK  223  A    between atoms: _536  and  _537
REMARK  224  A    between atoms: _539  and  _541
REMARK  225  A    between atoms: _541  and  _542
REMARK  226  A    between atoms: _541  and  _544
REMARK  227  A    between atoms: _544  and  _545
REMARK  228  A    between atoms: _545  and  _546
REMARK  229  A    between atoms: _546  and  _547
REMARK  230  A    between atoms: _556  and  _558
REMARK  231  A    between atoms: _558  and  _559
REMARK  232  A    between atoms: _558  and  _561
REMARK  233  A    between atoms: _561  and  _562
REMARK                            x       y       z     vdW  Elec       q    Type
REMARK                         _______ _______ _______ _____ _____    ______ ____
ROOT
ATOM      1  O   HOH     1       6.727  22.089  11.485  0.00  0.00    +0.000 OA
ENDROOT
TORSDOF 0
REMARK  Name = ../refined-set-2016/2z4o/2z4o_pocket.pdb
REMARK  233 active torsions:
REMARK  status: ('A' for Active; 'I' for Inactive)
REMARK    1  A    between atoms: _1  and  _3
REMARK    2  A    between atoms: _3  and  _4
REMARK    3  A    between atoms: _3  and  _6
REMARK    4  A    between atoms: _6  and  _7
REMARK    5  A    between atoms: _7  and  _8
REMARK    6  A    between atoms: _8  and  _9
REMARK    7  A    between atoms: _11  and  _15
REMARK    8  A    between atoms: _18  and  _20
REMARK    9  A    between atoms: _20  and  _21
REMARK   10  A    between atoms: _20  and  _23
REMARK   11  A    between atoms: _23  and  _24
REMARK   12  A    between atoms: _27  and  _29
REMARK   13  A    between atoms: _29  and  _30
REMARK   14  A    between atoms: _29  and  _32
REMARK   15  A    between atoms: _32  and  _33
REMARK   16  A    between atoms: _36  and  _38
REMARK   17  A    between atoms: _38  and  _39
REMARK   18  A    between atoms: _38  and  _41
REMARK   19  A    between atoms: _41  and  _42
REMARK   20  A    between atoms: _45  and  _47
REMARK   21  A    between atoms: _47  and  _48
REMARK   22  A    between atoms: _47  and  _50
REMARK   23  A    between atoms: _50  and  _51
REMARK   24  A    between atoms: _54  and  _56
REMARK   25  A    between atoms: _56  and  _57
REMARK   26  A    between atoms: _59  and  _61
REMARK   27  A    between atoms: _61  and  _62
REMARK   28  A    between atoms: _65  and  _67
REMARK   29  A    between atoms: _67  and  _68
REMARK   30  A    between atoms: _67  and  _70
REMARK   31  A    between atoms: _70  and  _71
REMARK   32  A    between atoms: _74  and  _76
REMARK   33  A    between atoms: _76  and  _77
REMARK   34  A    between atoms: _76  and  _79
REMARK   35  A    between atoms: _79  and  _80
REMARK   36  A    between atoms: _83  and  _85
REMARK   37  A    between atoms: _85  and  _86
REMARK   38  A    between atoms: _85  and  _88
REMARK   39  A    between atoms: _88  and  _89
REMARK   40  A    between atoms: _92  and  _94
REMARK   41  A    between atoms: _94  and  _95
REMARK   42  A    between atoms: _94  and  _97
REMARK   43  A    between atoms: _100  and  _102
REMARK   44  A    between atoms: _102  and  _103
REMARK   45  A    between atoms: _102  and  _105
REMARK   46  A    between atoms: _105  and  _106
REMARK   47  A    between atoms: _106  and  _107
REMARK   48  A    between atoms: _107  and  _108
REMARK   49  A    between atoms: _108  and  _109
REMARK   50  A    between atoms: _113  and  _115
REMARK   51  A    between atoms: _115  and  _116
REMARK   52  A    between atoms: _115  and  _118
REMARK   53  A    between atoms: _118  and  _119
REMARK   54  A    between atoms: _119  and  _120
REMARK   55  A    between atoms: _122  and  _124
REMARK   56  A    between atoms: _124  and  _125
REMARK   57  A    between atoms: _124  and  _127
REMARK   58  A    between atoms: _127  and  _128
REMARK   59  A    between atoms: _131  and  _133
REMARK   60  A    between atoms: _133  and  _134
REMARK   61  A    between atoms: _136  and  _138
REMARK   62  A    between atoms: _138  and  _139
REMARK   63  A    between atoms: _141  and  _143
REMARK   64  A    between atoms: _143  and  _144
REMARK   65  A    between atoms: _143  and  _146
REMARK   66  A    between atoms: _146  and  _147
REMARK   67  A    between atoms: _150  and  _152
REMARK   68  A    between atoms: _152  and  _153
REMARK   69  A    between atoms: _155  and  _157
REMARK   70  A    between atoms: _157  and  _158
REMARK   71  A    between atoms: _160  and  _162
REMARK   72  A    between atoms: _162  and  _163
REMARK   73  A    between atoms: _162  and  _165
REMARK   74  A    between atoms: _165  and  _166
REMARK   75  A    between atoms: _172  and  _174
REMARK   76  A    between atoms: _174  and  _175
REMARK   77  A    between atoms: _174  and  _177
REMARK   78  A    between atoms: _177  and  _178
REMARK   79  A    between atoms: _181  and  _183
REMARK   80  A    between atoms: _183  and  _184
REMARK   81  A    between atoms: _183  and  _186
REMARK   82  A    between atoms: _189  and  _191
REMARK   83  A    between atoms: _191  and  _192
REMARK   84  A    between atoms: _191  and  _194
REMARK   85  A    between atoms: _194  and  _195
REMARK   86  A    between atoms: _198  and  _200
REMARK   87  A    between atoms: _200  and  _201
REMARK   88  A    between atoms: _200  and  _203
REMARK   89  A    between atoms: _203  and  _204
REMARK   90  A    between atoms: _208  and  _209
REMARK   91  A    between atoms: _214  and  _216
REMARK   92  A    between atoms: _216  and  _217
REMARK   93  A    between atoms: _216  and  _219
REMARK   94  A    between atoms: _222  and  _224
REMARK   95  A    between atoms: _224  and  _225
REMARK   96  A    between atoms: _224  and  _227
REMARK   97  A    between atoms: _227  and  _228
REMARK   98  A    between atoms: _233  and  _235
REMARK   99  A    between atoms: _235  and  _236
REMARK  100  A    between atoms: _235  and  _238
REMARK  101  A    between atoms: _238  and  _239
REMARK  102  A    between atoms: _242  and  _244
REMARK  103  A    between atoms: _244  and  _245
REMARK  104  A    between atoms: _244  and  _247
REMARK  105  A    between atoms: _247  and  _248
REMARK  106  A    between atoms: _251  and  _253
REMARK  107  A    between atoms: _253  and  _254
REMARK  108  A    between atoms: _256  and  _258
REMARK  109  A    between atoms: _258  and  _259
REMARK  110  A    between atoms: _258  and  _261
REMARK  111  A    between atoms: _261  and  _262
REMARK  112  A    between atoms: _262  and  _263
REMARK  113  A    between atoms: _263  and  _264
REMARK  114  A    between atoms: _273  and  _275
REMARK  115  A    between atoms: _275  and  _276
REMARK  116  A    between atoms: _275  and  _278
REMARK  117  A    between atoms: _278  and  _279
REMARK  118  A    between atoms: _284  and  _286
REMARK  119  A    between atoms: _286  and  _287
REMARK  120  A    between atoms: _286  and  _289
REMARK  121  A    between atoms: _289  and  _290
REMARK  122  A    between atoms: _290  and  _291
REMARK  123  A    between atoms: _291  and  _292
REMARK  124  A    between atoms: _301  and  _303
REMARK  125  A    between atoms: _303  and  _304
REMARK  126  A    between atoms: _303  and  _306
REMARK  127  A    between atoms: _306  and  _307
REMARK  128  A    between atoms: _310  and  _312
REMARK  129  A    between atoms: _312  and  _313
REMARK  130  A    between atoms: _312  and  _315
REMARK  131  A    between atoms: _315  and  _316
REMARK  132  A    between atoms: _319  and  _321
REMARK  133  A    between atoms: _321  and  _322
REMARK  134  A    between atoms: _321  and  _324
REMARK  135  A    between atoms: _324  and  _325
REMARK  136  A    between atoms: _328  and  _330
REMARK  137  A    between atoms: _330  and  _331
REMARK  138  A    between atoms: _330  and  _333
REMARK  139  A    between atoms: _333  and  _334
REMARK  140  A    between atoms: _337  and  _339
REMARK  141  A    between atoms: _339  and  _340
REMARK  142  A    between atoms: _342  and  _344
REMARK  143  A    between atoms: _344  and  _345
REMARK  144  A    between atoms: _348  and  _350
REMARK  145  A    between atoms: _350  and  _351
REMARK  146  A    between atoms: _350  and  _353
REMARK  147  A    between atoms: _353  and  _354
REMARK  148  A    between atoms: _357  and  _359
REMARK  149  A    between atoms: _359  and  _360
REMARK  150  A    between atoms: _359  and  _362
REMARK  151  A    between atoms: _362  and  _363
REMARK  152  A    between atoms: _366  and  _368
REMARK  153  A    between atoms: _368  and  _369
REMARK  154  A    between atoms: _368  and  _371
REMARK  155  A    between atoms: _371  and  _372
REMARK  156  A    between atoms: _375  and  _377
REMARK  157  A    between atoms: _377  and  _378
REMARK  158  A    between atoms: _377  and  _380
REMARK  159  A    between atoms: _383  and  _385
REMARK  160  A    between atoms: _385  and  _386
REMARK  161  A    between atoms: _385  and  _388
REMARK  162  A    between atoms: _388  and  _389
REMARK  163  A    between atoms: _389  and  _390
REMARK  164  A    between atoms: _390  and  _391
REMARK  165  A    between atoms: _391  and  _392
REMARK  166  A    between atoms: _396  and  _398
REMARK  167  A    between atoms: _398  and  _399
REMARK  168  A    between atoms: _398  and  _401
REMARK  169  A    between atoms: _401  and  _402
REMARK  170  A    between atoms: _402  and  _403
REMARK  171  A    between atoms: _405  and  _407
REMARK  172  A    between atoms: _407  and  _408
REMARK  173  A    between atoms: _407  and  _410
REMARK  174  A    between atoms: _410  and  _411
REMARK  175  A    between atoms: _414  and  _416
REMARK  176  A    between atoms: _416  and  _417
REMARK  177  A    between atoms: _419  and  _421
REMARK  178  A    between atoms: _421  and  _422
REMARK  179  A    between atoms: _424  and  _426
REMARK  180  A    between atoms: _426  and  _427
REMARK  181  A    between atoms: _426  and  _429
REMARK  182  A    between atoms: _429  and  _430
REMARK  183  A    between atoms: _433  and  _435
REMARK  184  A    between atoms: _435  and  _436
REMARK  185  A    between atoms: _438  and  _440
REMARK  186  A    between atoms: _440  and  _441
REMARK  187  A    between atoms: _443  and  _445
REMARK  188  A    between atoms: _445  and  _446
REMARK  189  A    between atoms: _445  and  _448
REMARK  190  A    between atoms: _448  and  _449
REMARK  191  A    between atoms: _455  and  _457
REMARK  192  A    between atoms: _457  and  _458
REMARK  193  A    between atoms: _457  and  _460
REMARK  194  A    between atoms: _460  and  _461
REMARK  195  A    between atoms: _464  and  _466
REMARK  196  A    between atoms: _466  and  _467
REMARK  197  A    between atoms: _466  and  _469
REMARK  198  A    between atoms: _472  and  _474
REMARK  199  A    between atoms: _474  and  _475
REMARK  200  A    between atoms: _474  and  _477
REMARK  201  A    between atoms: _477  and  _478
REMARK  202  A    between atoms: _481  and  _483
REMARK  203  A    between atoms: _483  and  _484
REMARK  204  A    between atoms: _483  and  _486
REMARK  205  A    between atoms: _486  and  _487
REMARK  206  A    between atoms: _491  and  _492
REMARK  207  A    between atoms: _497  and  _499
REMARK  208  A    between atoms: _499  and  _500
REMARK  209  A    between atoms: _499  and  _502
REMARK  210  A    between atoms: _505  and  _507
REMARK  211  A    between atoms: _507  and  _508
REMARK  212  A    between atoms: _507  and  _510
REMARK  213  A    between atoms: _510  and  _511
REMARK  214  A    between atoms: _516  and  _518
REMARK  215  A    between atoms: _518  and  _519
REMARK  216  A    between atoms: _518  and  _521
REMARK  217  A    between atoms: _521  and  _522
REMARK  218  A    between atoms: _525  and  _527
REMARK  219  A    between atoms: _527  and  _528
REMARK  220  A    between atoms: _527  and  _530
REMARK  221  A    between atoms: _530  and  _531
REMARK  222  A    between atoms: _534  and  _536
REMARK  223  A    between atoms: _536  and  _537
REMARK  224  A    between atoms: _539  and  _541
REMARK  225  A    between atoms: _541  and  _542
REMARK  226  A    between atoms: _541  and  _544
REMARK  227  A    between atoms: _544  and  _545
REMARK  228  A    between atoms: _545  and  _546
REMARK  229  A    between atoms: _546  and  _547
REMARK  230  A    between atoms: _556  and  _558
REMARK  231  A    between atoms: _558  and  _559
REMARK  232  A    between atoms: _558  and  _561
REMARK  233  A    between atoms: _561  and  _562
REMARK                            x       y       z     vdW  Elec       q    Type
REMARK                         _______ _______ _______ _____ _____    ______ ____
ROOT
ATOM      1  O   HOH     1       7.353  22.947   8.707  0.00  0.00    +0.000 OA
ENDROOT
TORSDOF 0
REMARK  Name = ../refined-set-2016/2z4o/2z4o_pocket.pdb
REMARK  233 active torsions:
REMARK  status: ('A' for Active; 'I' for Inactive)
REMARK    1  A    between atoms: _1  and  _3
REMARK    2  A    between atoms: _3  and  _4
REMARK    3  A    between atoms: _3  and  _6
REMARK    4  A    between atoms: _6  and  _7
REMARK    5  A    between atoms: _7  and  _8
REMARK    6  A    between atoms: _8  and  _9
REMARK    7  A    between atoms: _11  and  _15
REMARK    8  A    between atoms: _18  and  _20
REMARK    9  A    between atoms: _20  and  _21
REMARK   10  A    between atoms: _20  and  _23
REMARK   11  A    between atoms: _23  and  _24
REMARK   12  A    between atoms: _27  and  _29
REMARK   13  A    between atoms: _29  and  _30
REMARK   14  A    between atoms: _29  and  _32
REMARK   15  A    between atoms: _32  and  _33
REMARK   16  A    between atoms: _36  and  _38
REMARK   17  A    between atoms: _38  and  _39
REMARK   18  A    between atoms: _38  and  _41
REMARK   19  A    between atoms: _41  and  _42
REMARK   20  A    between atoms: _45  and  _47
REMARK   21  A    between atoms: _47  and  _48
REMARK   22  A    between atoms: _47  and  _50
REMARK   23  A    between atoms: _50  and  _51
REMARK   24  A    between atoms: _54  and  _56
REMARK   25  A    between atoms: _56  and  _57
REMARK   26  A    between atoms: _59  and  _61
REMARK   27  A    between atoms: _61  and  _62
REMARK   28  A    between atoms: _65  and  _67
REMARK   29  A    between atoms: _67  and  _68
REMARK   30  A    between atoms: _67  and  _70
REMARK   31  A    between atoms: _70  and  _71
REMARK   32  A    between atoms: _74  and  _76
REMARK   33  A    between atoms: _76  and  _77
REMARK   34  A    between atoms: _76  and  _79
REMARK   35  A    between atoms: _79  and  _80
REMARK   36  A    between atoms: _83  and  _85
REMARK   37  A    between atoms: _85  and  _86
REMARK   38  A    between atoms: _85  and  _88
REMARK   39  A    between atoms: _88  and  _89
REMARK   40  A    between atoms: _92  and  _94
REMARK   41  A    between atoms: _94  and  _95
REMARK   42  A    between atoms: _94  and  _97
REMARK   43  A    between atoms: _100  and  _102
REMARK   44  A    between atoms: _102  and  _103
REMARK   45  A    between atoms: _102  and  _105
REMARK   46  A    between atoms: _105  and  _106
REMARK   47  A    between atoms: _106  and  _107
REMARK   48  A    between atoms: _107  and  _108
REMARK   49  A    between atoms: _108  and  _109
REMARK   50  A    between atoms: _113  and  _115
REMARK   51  A    between atoms: _115  and  _116
REMARK   52  A    between atoms: _115  and  _118
REMARK   53  A    between atoms: _118  and  _119
REMARK   54  A    between atoms: _119  and  _120
REMARK   55  A    between atoms: _122  and  _124
REMARK   56  A    between atoms: _124  and  _125
REMARK   57  A    between atoms: _124  and  _127
REMARK   58  A    between atoms: _127  and  _128
REMARK   59  A    between atoms: _131  and  _133
REMARK   60  A    between atoms: _133  and  _134
REMARK   61  A    between atoms: _136  and  _138
REMARK   62  A    between atoms: _138  and  _139
REMARK   63  A    between atoms: _141  and  _143
REMARK   64  A    between atoms: _143  and  _144
REMARK   65  A    between atoms: _143  and  _146
REMARK   66  A    between atoms: _146  and  _147
REMARK   67  A    between atoms: _150  and  _152
REMARK   68  A    between atoms: _152  and  _153
REMARK   69  A    between atoms: _155  and  _157
REMARK   70  A    between atoms: _157  and  _158
REMARK   71  A    between atoms: _160  and  _162
REMARK   72  A    between atoms: _162  and  _163
REMARK   73  A    between atoms: _162  and  _165
REMARK   74  A    between atoms: _165  and  _166
REMARK   75  A    between atoms: _172  and  _174
REMARK   76  A    between atoms: _174  and  _175
REMARK   77  A    between atoms: _174  and  _177
REMARK   78  A    between atoms: _177  and  _178
REMARK   79  A    between atoms: _181  and  _183
REMARK   80  A    between atoms: _183  and  _184
REMARK   81  A    between atoms: _183  and  _186
REMARK   82  A    between atoms: _189  and  _191
REMARK   83  A    between atoms: _191  and  _192
REMARK   84  A    between atoms: _191  and  _194
REMARK   85  A    between atoms: _194  and  _195
REMARK   86  A    between atoms: _198  and  _200
REMARK   87  A    between atoms: _200  and  _201
REMARK   88  A    between atoms: _200  and  _203
REMARK   89  A    between atoms: _203  and  _204
REMARK   90  A    between atoms: _208  and  _209
REMARK   91  A    between atoms: _214  and  _216
REMARK   92  A    between atoms: _216  and  _217
REMARK   93  A    between atoms: _216  and  _219
REMARK   94  A    between atoms: _222  and  _224
REMARK   95  A    between atoms: _224  and  _225
REMARK   96  A    between atoms: _224  and  _227
REMARK   97  A    between atoms: _227  and  _228
REMARK   98  A    between atoms: _233  and  _235
REMARK   99  A    between atoms: _235  and  _236
REMARK  100  A    between atoms: _235  and  _238
REMARK  101  A    between atoms: _238  and  _239
REMARK  102  A    between atoms: _242  and  _244
REMARK  103  A    between atoms: _244  and  _245
REMARK  104  A    between atoms: _244  and  _247
REMARK  105  A    between atoms: _247  and  _248
REMARK  106  A    between atoms: _251  and  _253
REMARK  107  A    between atoms: _253  and  _254
REMARK  108  A    between atoms: _256  and  _258
REMARK  109  A    between atoms: _258  and  _259
REMARK  110  A    between atoms: _258  and  _261
REMARK  111  A    between atoms: _261  and  _262
REMARK  112  A    between atoms: _262  and  _263
REMARK  113  A    between atoms: _263  and  _264
REMARK  114  A    between atoms: _273  and  _275
REMARK  115  A    between atoms: _275  and  _276
REMARK  116  A    between atoms: _275  and  _278
REMARK  117  A    between atoms: _278  and  _279
REMARK  118  A    between atoms: _284  and  _286
REMARK  119  A    between atoms: _286  and  _287
REMARK  120  A    between atoms: _286  and  _289
REMARK  121  A    between atoms: _289  and  _290
REMARK  122  A    between atoms: _290  and  _291
REMARK  123  A    between atoms: _291  and  _292
REMARK  124  A    between atoms: _301  and  _303
REMARK  125  A    between atoms: _303  and  _304
REMARK  126  A    between atoms: _303  and  _306
REMARK  127  A    between atoms: _306  and  _307
REMARK  128  A    between atoms: _310  and  _312
REMARK  129  A    between atoms: _312  and  _313
REMARK  130  A    between atoms: _312  and  _315
REMARK  131  A    between atoms: _315  and  _316
REMARK  132  A    between atoms: _319  and  _321
REMARK  133  A    between atoms: _321  and  _322
REMARK  134  A    between atoms: _321  and  _324
REMARK  135  A    between atoms: _324  and  _325
REMARK  136  A    between atoms: _328  and  _330
REMARK  137  A    between atoms: _330  and  _331
REMARK  138  A    between atoms: _330  and  _333
REMARK  139  A    between atoms: _333  and  _334
REMARK  140  A    between atoms: _337  and  _339
REMARK  141  A    between atoms: _339  and  _340
REMARK  142  A    between atoms: _342  and  _344
REMARK  143  A    between atoms: _344  and  _345
REMARK  144  A    between atoms: _348  and  _350
REMARK  145  A    between atoms: _350  and  _351
REMARK  146  A    between atoms: _350  and  _353
REMARK  147  A    between atoms: _353  and  _354
REMARK  148  A    between atoms: _357  and  _359
REMARK  149  A    between atoms: _359  and  _360
REMARK  150  A    between atoms: _359  and  _362
REMARK  151  A    between atoms: _362  and  _363
REMARK  152  A    between atoms: _366  and  _368
REMARK  153  A    between atoms: _368  and  _369
REMARK  154  A    between atoms: _368  and  _371
REMARK  155  A    between atoms: _371  and  _372
REMARK  156  A    between atoms: _375  and  _377
REMARK  157  A    between atoms: _377  and  _378
REMARK  158  A    between atoms: _377  and  _380
REMARK  159  A    between atoms: _383  and  _385
REMARK  160  A    between atoms: _385  and  _386
REMARK  161  A    between atoms: _385  and  _388
REMARK  162  A    between atoms: _388  and  _389
REMARK  163  A    between atoms: _389  and  _390
REMARK  164  A    between atoms: _390  and  _391
REMARK  165  A    between atoms: _391  and  _392
REMARK  166  A    between atoms: _396  and  _398
REMARK  167  A    between atoms: _398  and  _399
REMARK  168  A    between atoms: _398  and  _401
REMARK  169  A    between atoms: _401  and  _402
REMARK  170  A    between atoms: _402  and  _403
REMARK  171  A    between atoms: _405  and  _407
REMARK  172  A    between atoms: _407  and  _408
REMARK  173  A    between atoms: _407  and  _410
REMARK  174  A    between atoms: _410  and  _411
REMARK  175  A    between atoms: _414  and  _416
REMARK  176  A    between atoms: _416  and  _417
REMARK  177  A    between atoms: _419  and  _421
REMARK  178  A    between atoms: _421  and  _422
REMARK  179  A    between atoms: _424  and  _426
REMARK  180  A    between atoms: _426  and  _427
REMARK  181  A    between atoms: _426  and  _429
REMARK  182  A    between atoms: _429  and  _430
REMARK  183  A    between atoms: _433  and  _435
REMARK  184  A    between atoms: _435  and  _436
REMARK  185  A    between atoms: _438  and  _440
REMARK  186  A    between atoms: _440  and  _441
REMARK  187  A    between atoms: _443  and  _445
REMARK  188  A    between atoms: _445  and  _446
REMARK  189  A    between atoms: _445  and  _448
REMARK  190  A    between atoms: _448  and  _449
REMARK  191  A    between atoms: _455  and  _457
REMARK  192  A    between atoms: _457  and  _458
REMARK  193  A    between atoms: _457  and  _460
REMARK  194  A    between atoms: _460  and  _461
REMARK  195  A    between atoms: _464  and  _466
REMARK  196  A    between atoms: _466  and  _467
REMARK  197  A    between atoms: _466  and  _469
REMARK  198  A    between atoms: _472  and  _474
REMARK  199  A    between atoms: _474  and  _475
REMARK  200  A    between atoms: _474  and  _477
REMARK  201  A    between atoms: _477  and  _478
REMARK  202  A    between atoms: _481  and  _483
REMARK  203  A    between atoms: _483  and  _484
REMARK  204  A    between atoms: _483  and  _486
REMARK  205  A    between atoms: _486  and  _487
REMARK  206  A    between atoms: _491  and  _492
REMARK  207  A    between atoms: _497  and  _499
REMARK  208  A    between atoms: _499  and  _500
REMARK  209  A    between atoms: _499  and  _502
REMARK  210  A    between atoms: _505  and  _507
REMARK  211  A    between atoms: _507  and  _508
REMARK  212  A    between atoms: _507  and  _510
REMARK  213  A    between atoms: _510  and  _511
REMARK  214  A    between atoms: _516  and  _518
REMARK  215  A    between atoms: _518  and  _519
REMARK  216  A    between atoms: _518  and  _521
REMARK  217  A    between atoms: _521  and  _522
REMARK  218  A    between atoms: _525  and  _527
REMARK  219  A    between atoms: _527  and  _528
REMARK  220  A    between atoms: _527  and  _530
REMARK  221  A    between atoms: _530  and  _531
REMARK  222  A    between atoms: _534  and  _536
REMARK  223  A    between atoms: _536  and  _537
REMARK  224  A    between atoms: _539  and  _541
REMARK  225  A    between atoms: _541  and  _542
REMARK  226  A    between atoms: _541  and  _544
REMARK  227  A    between atoms: _544  and  _545
REMARK  228  A    between atoms: _545  and  _546
REMARK  229  A    between atoms: _546  and  _547
REMARK  230  A    between atoms: _556  and  _558
REMARK  231  A    between atoms: _558  and  _559
REMARK  232  A    between atoms: _558  and  _561
REMARK  233  A    between atoms: _561  and  _562
REMARK                            x       y       z     vdW  Elec       q    Type
REMARK                         _______ _______ _______ _____ _____    ______ ____
ROOT
ATOM      1  O   HOH     1      25.186  30.407  17.321  0.00  0.00    +0.000 OA
ENDROOT
TORSDOF 0
REMARK  Name = ../refined-set-2016/2z4o/2z4o_pocket.pdb
REMARK  233 active torsions:
REMARK  status: ('A' for Active; 'I' for Inactive)
REMARK    1  A    between atoms: _1  and  _3
REMARK    2  A    between atoms: _3  and  _4
REMARK    3  A    between atoms: _3  and  _6
REMARK    4  A    between atoms: _6  and  _7
REMARK    5  A    between atoms: _7  and  _8
REMARK    6  A    between atoms: _8  and  _9
REMARK    7  A    between atoms: _11  and  _15
REMARK    8  A    between atoms: _18  and  _20
REMARK    9  A    between atoms: _20  and  _21
REMARK   10  A    between atoms: _20  and  _23
REMARK   11  A    between atoms: _23  and  _24
REMARK   12  A    between atoms: _27  and  _29
REMARK   13  A    between atoms: _29  and  _30
REMARK   14  A    between atoms: _29  and  _32
REMARK   15  A    between atoms: _32  and  _33
REMARK   16  A    between atoms: _36  and  _38
REMARK   17  A    between atoms: _38  and  _39
REMARK   18  A    between atoms: _38  and  _41
REMARK   19  A    between atoms: _41  and  _42
REMARK   20  A    between atoms: _45  and  _47
REMARK   21  A    between atoms: _47  and  _48
REMARK   22  A    between atoms: _47  and  _50
REMARK   23  A    between atoms: _50  and  _51
REMARK   24  A    between atoms: _54  and  _56
REMARK   25  A    between atoms: _56  and  _57
REMARK   26  A    between atoms: _59  and  _61
REMARK   27  A    between atoms: _61  and  _62
REMARK   28  A    between atoms: _65  and  _67
REMARK   29  A    between atoms: _67  and  _68
REMARK   30  A    between atoms: _67  and  _70
REMARK   31  A    between atoms: _70  and  _71
REMARK   32  A    between atoms: _74  and  _76
REMARK   33  A    between atoms: _76  and  _77
REMARK   34  A    between atoms: _76  and  _79
REMARK   35  A    between atoms: _79  and  _80
REMARK   36  A    between atoms: _83  and  _85
REMARK   37  A    between atoms: _85  and  _86
REMARK   38  A    between atoms: _85  and  _88
REMARK   39  A    between atoms: _88  and  _89
REMARK   40  A    between atoms: _92  and  _94
REMARK   41  A    between atoms: _94  and  _95
REMARK   42  A    between atoms: _94  and  _97
REMARK   43  A    between atoms: _100  and  _102
REMARK   44  A    between atoms: _102  and  _103
REMARK   45  A    between atoms: _102  and  _105
REMARK   46  A    between atoms: _105  and  _106
REMARK   47  A    between atoms: _106  and  _107
REMARK   48  A    between atoms: _107  and  _108
REMARK   49  A    between atoms: _108  and  _109
REMARK   50  A    between atoms: _113  and  _115
REMARK   51  A    between atoms: _115  and  _116
REMARK   52  A    between atoms: _115  and  _118
REMARK   53  A    between atoms: _118  and  _119
REMARK   54  A    between atoms: _119  and  _120
REMARK   55  A    between atoms: _122  and  _124
REMARK   56  A    between atoms: _124  and  _125
REMARK   57  A    between atoms: _124  and  _127
REMARK   58  A    between atoms: _127  and  _128
REMARK   59  A    between atoms: _131  and  _133
REMARK   60  A    between atoms: _133  and  _134
REMARK   61  A    between atoms: _136  and  _138
REMARK   62  A    between atoms: _138  and  _139
REMARK   63  A    between atoms: _141  and  _143
REMARK   64  A    between atoms: _143  and  _144
REMARK   65  A    between atoms: _143  and  _146
REMARK   66  A    between atoms: _146  and  _147
REMARK   67  A    between atoms: _150  and  _152
REMARK   68  A    between atoms: _152  and  _153
REMARK   69  A    between atoms: _155  and  _157
REMARK   70  A    between atoms: _157  and  _158
REMARK   71  A    between atoms: _160  and  _162
REMARK   72  A    between atoms: _162  and  _163
REMARK   73  A    between atoms: _162  and  _165
REMARK   74  A    between atoms: _165  and  _166
REMARK   75  A    between atoms: _172  and  _174
REMARK   76  A    between atoms: _174  and  _175
REMARK   77  A    between atoms: _174  and  _177
REMARK   78  A    between atoms: _177  and  _178
REMARK   79  A    between atoms: _181  and  _183
REMARK   80  A    between atoms: _183  and  _184
REMARK   81  A    between atoms: _183  and  _186
REMARK   82  A    between atoms: _189  and  _191
REMARK   83  A    between atoms: _191  and  _192
REMARK   84  A    between atoms: _191  and  _194
REMARK   85  A    between atoms: _194  and  _195
REMARK   86  A    between atoms: _198  and  _200
REMARK   87  A    between atoms: _200  and  _201
REMARK   88  A    between atoms: _200  and  _203
REMARK   89  A    between atoms: _203  and  _204
REMARK   90  A    between atoms: _208  and  _209
REMARK   91  A    between atoms: _214  and  _216
REMARK   92  A    between atoms: _216  and  _217
REMARK   93  A    between atoms: _216  and  _219
REMARK   94  A    between atoms: _222  and  _224
REMARK   95  A    between atoms: _224  and  _225
REMARK   96  A    between atoms: _224  and  _227
REMARK   97  A    between atoms: _227  and  _228
REMARK   98  A    between atoms: _233  and  _235
REMARK   99  A    between atoms: _235  and  _236
REMARK  100  A    between atoms: _235  and  _238
REMARK  101  A    between atoms: _238  and  _239
REMARK  102  A    between atoms: _242  and  _244
REMARK  103  A    between atoms: _244  and  _245
REMARK  104  A    between atoms: _244  and  _247
REMARK  105  A    between atoms: _247  and  _248
REMARK  106  A    between atoms: _251  and  _253
REMARK  107  A    between atoms: _253  and  _254
REMARK  108  A    between atoms: _256  and  _258
REMARK  109  A    between atoms: _258  and  _259
REMARK  110  A    between atoms: _258  and  _261
REMARK  111  A    between atoms: _261  and  _262
REMARK  112  A    between atoms: _262  and  _263
REMARK  113  A    between atoms: _263  and  _264
REMARK  114  A    between atoms: _273  and  _275
REMARK  115  A    between atoms: _275  and  _276
REMARK  116  A    between atoms: _275  and  _278
REMARK  117  A    between atoms: _278  and  _279
REMARK  118  A    between atoms: _284  and  _286
REMARK  119  A    between atoms: _286  and  _287
REMARK  120  A    between atoms: _286  and  _289
REMARK  121  A    between atoms: _289  and  _290
REMARK  122  A    between atoms: _290  and  _291
REMARK  123  A    between atoms: _291  and  _292
REMARK  124  A    between atoms: _301  and  _303
REMARK  125  A    between atoms: _303  and  _304
REMARK  126  A    between atoms: _303  and  _306
REMARK  127  A    between atoms: _306  and  _307
REMARK  128  A    between atoms: _310  and  _312
REMARK  129  A    between atoms: _312  and  _313
REMARK  130  A    between atoms: _312  and  _315
REMARK  131  A    between atoms: _315  and  _316
REMARK  132  A    between atoms: _319  and  _321
REMARK  133  A    between atoms: _321  and  _322
REMARK  134  A    between atoms: _321  and  _324
REMARK  135  A    between atoms: _324  and  _325
REMARK  136  A    between atoms: _328  and  _330
REMARK  137  A    between atoms: _330  and  _331
REMARK  138  A    between atoms: _330  and  _333
REMARK  139  A    between atoms: _333  and  _334
REMARK  140  A    between atoms: _337  and  _339
REMARK  141  A    between atoms: _339  and  _340
REMARK  142  A    between atoms: _342  and  _344
REMARK  143  A    between atoms: _344  and  _345
REMARK  144  A    between atoms: _348  and  _350
REMARK  145  A    between atoms: _350  and  _351
REMARK  146  A    between atoms: _350  and  _353
REMARK  147  A    between atoms: _353  and  _354
REMARK  148  A    between atoms: _357  and  _359
REMARK  149  A    between atoms: _359  and  _360
REMARK  150  A    between atoms: _359  and  _362
REMARK  151  A    between atoms: _362  and  _363
REMARK  152  A    between atoms: _366  and  _368
REMARK  153  A    between atoms: _368  and  _369
REMARK  154  A    between atoms: _368  and  _371
REMARK  155  A    between atoms: _371  and  _372
REMARK  156  A    between atoms: _375  and  _377
REMARK  157  A    between atoms: _377  and  _378
REMARK  158  A    between atoms: _377  and  _380
REMARK  159  A    between atoms: _383  and  _385
REMARK  160  A    between atoms: _385  and  _386
REMARK  161  A    between atoms: _385  and  _388
REMARK  162  A    between atoms: _388  and  _389
REMARK  163  A    between atoms: _389  and  _390
REMARK  164  A    between atoms: _390  and  _391
REMARK  165  A    between atoms: _391  and  _392
REMARK  166  A    between atoms: _396  and  _398
REMARK  167  A    between atoms: _398  and  _399
REMARK  168  A    between atoms: _398  and  _401
REMARK  169  A    between atoms: _401  and  _402
REMARK  170  A    between atoms: _402  and  _403
REMARK  171  A    between atoms: _405  and  _407
REMARK  172  A    between atoms: _407  and  _408
REMARK  173  A    between atoms: _407  and  _410
REMARK  174  A    between atoms: _410  and  _411
REMARK  175  A    between atoms: _414  and  _416
REMARK  176  A    between atoms: _416  and  _417
REMARK  177  A    between atoms: _419  and  _421
REMARK  178  A    between atoms: _421  and  _422
REMARK  179  A    between atoms: _424  and  _426
REMARK  180  A    between atoms: _426  and  _427
REMARK  181  A    between atoms: _426  and  _429
REMARK  182  A    between atoms: _429  and  _430
REMARK  183  A    between atoms: _433  and  _435
REMARK  184  A    between atoms: _435  and  _436
REMARK  185  A    between atoms: _438  and  _440
REMARK  186  A    between atoms: _440  and  _441
REMARK  187  A    between atoms: _443  and  _445
REMARK  188  A    between atoms: _445  and  _446
REMARK  189  A    between atoms: _445  and  _448
REMARK  190  A    between atoms: _448  and  _449
REMARK  191  A    between atoms: _455  and  _457
REMARK  192  A    between atoms: _457  and  _458
REMARK  193  A    between atoms: _457  and  _460
REMARK  194  A    between atoms: _460  and  _461
REMARK  195  A    between atoms: _464  and  _466
REMARK  196  A    between atoms: _466  and  _467
REMARK  197  A    between atoms: _466  and  _469
REMARK  198  A    between atoms: _472  and  _474
REMARK  199  A    between atoms: _474  and  _475
REMARK  200  A    between atoms: _474  and  _477
REMARK  201  A    between atoms: _477  and  _478
REMARK  202  A    between atoms: _481  and  _483
REMARK  203  A    between atoms: _483  and  _484
REMARK  204  A    between atoms: _483  and  _486
REMARK  205  A    between atoms: _486  and  _487
REMARK  206  A    between atoms: _491  and  _492
REMARK  207  A    between atoms: _497  and  _499
REMARK  208  A    between atoms: _499  and  _500
REMARK  209  A    between atoms: _499  and  _502
REMARK  210  A    between atoms: _505  and  _507
REMARK  211  A    between atoms: _507  and  _508
REMARK  212  A    between atoms: _507  and  _510
REMARK  213  A    between atoms: _510  and  _511
REMARK  214  A    between atoms: _516  and  _518
REMARK  215  A    between atoms: _518  and  _519
REMARK  216  A    between atoms: _518  and  _521
REMARK  217  A    between atoms: _521  and  _522
REMARK  218  A    between atoms: _525  and  _527
REMARK  219  A    between atoms: _527  and  _528
REMARK  220  A    between atoms: _527  and  _530
REMARK  221  A    between atoms: _530  and  _531
REMARK  222  A    between atoms: _534  and  _536
REMARK  223  A    between atoms: _536  and  _537
REMARK  224  A    between atoms: _539  and  _541
REMARK  225  A    between atoms: _541  and  _542
REMARK  226  A    between atoms: _541  and  _544
REMARK  227  A    between atoms: _544  and  _545
REMARK  228  A    between atoms: _545  and  _546
REMARK  229  A    between atoms: _546  and  _547
REMARK  230  A    between atoms: _556  and  _558
REMARK  231  A    between atoms: _558  and  _559
REMARK  232  A    between atoms: _558  and  _561
REMARK  233  A    between atoms: _561  and  _562
REMARK                            x       y       z     vdW  Elec       q    Type
REMARK                         _______ _______ _______ _____ _____    ______ ____
ROOT
ATOM      1  O   HOH     1      11.468  17.370   7.485  0.00  0.00    +0.000 OA
ENDROOT
TORSDOF 0
REMARK  Name = ../refined-set-2016/2z4o/2z4o_pocket.pdb
REMARK  233 active torsions:
REMARK  status: ('A' for Active; 'I' for Inactive)
REMARK    1  A    between atoms: _1  and  _3
REMARK    2  A    between atoms: _3  and  _4
REMARK    3  A    between atoms: _3  and  _6
REMARK    4  A    between atoms: _6  and  _7
REMARK    5  A    between atoms: _7  and  _8
REMARK    6  A    between atoms: _8  and  _9
REMARK    7  A    between atoms: _11  and  _15
REMARK    8  A    between atoms: _18  and  _20
REMARK    9  A    between atoms: _20  and  _21
REMARK   10  A    between atoms: _20  and  _23
REMARK   11  A    between atoms: _23  and  _24
REMARK   12  A    between atoms: _27  and  _29
REMARK   13  A    between atoms: _29  and  _30
REMARK   14  A    between atoms: _29  and  _32
REMARK   15  A    between atoms: _32  and  _33
REMARK   16  A    between atoms: _36  and  _38
REMARK   17  A    between atoms: _38  and  _39
REMARK   18  A    between atoms: _38  and  _41
REMARK   19  A    between atoms: _41  and  _42
REMARK   20  A    between atoms: _45  and  _47
REMARK   21  A    between atoms: _47  and  _48
REMARK   22  A    between atoms: _47  and  _50
REMARK   23  A    between atoms: _50  and  _51
REMARK   24  A    between atoms: _54  and  _56
REMARK   25  A    between atoms: _56  and  _57
REMARK   26  A    between atoms: _59  and  _61
REMARK   27  A    between atoms: _61  and  _62
REMARK   28  A    between atoms: _65  and  _67
REMARK   29  A    between atoms: _67  and  _68
REMARK   30  A    between atoms: _67  and  _70
REMARK   31  A    between atoms: _70  and  _71
REMARK   32  A    between atoms: _74  and  _76
REMARK   33  A    between atoms: _76  and  _77
REMARK   34  A    between atoms: _76  and  _79
REMARK   35  A    between atoms: _79  and  _80
REMARK   36  A    between atoms: _83  and  _85
REMARK   37  A    between atoms: _85  and  _86
REMARK   38  A    between atoms: _85  and  _88
REMARK   39  A    between atoms: _88  and  _89
REMARK   40  A    between atoms: _92  and  _94
REMARK   41  A    between atoms: _94  and  _95
REMARK   42  A    between atoms: _94  and  _97
REMARK   43  A    between atoms: _100  and  _102
REMARK   44  A    between atoms: _102  and  _103
REMARK   45  A    between atoms: _102  and  _105
REMARK   46  A    between atoms: _105  and  _106
REMARK   47  A    between atoms: _106  and  _107
REMARK   48  A    between atoms: _107  and  _108
REMARK   49  A    between atoms: _108  and  _109
REMARK   50  A    between atoms: _113  and  _115
REMARK   51  A    between atoms: _115  and  _116
REMARK   52  A    between atoms: _115  and  _118
REMARK   53  A    between atoms: _118  and  _119
REMARK   54  A    between atoms: _119  and  _120
REMARK   55  A    between atoms: _122  and  _124
REMARK   56  A    between atoms: _124  and  _125
REMARK   57  A    between atoms: _124  and  _127
REMARK   58  A    between atoms: _127  and  _128
REMARK   59  A    between atoms: _131  and  _133
REMARK   60  A    between atoms: _133  and  _134
REMARK   61  A    between atoms: _136  and  _138
REMARK   62  A    between atoms: _138  and  _139
REMARK   63  A    between atoms: _141  and  _143
REMARK   64  A    between atoms: _143  and  _144
REMARK   65  A    between atoms: _143  and  _146
REMARK   66  A    between atoms: _146  and  _147
REMARK   67  A    between atoms: _150  and  _152
REMARK   68  A    between atoms: _152  and  _153
REMARK   69  A    between atoms: _155  and  _157
REMARK   70  A    between atoms: _157  and  _158
REMARK   71  A    between atoms: _160  and  _162
REMARK   72  A    between atoms: _162  and  _163
REMARK   73  A    between atoms: _162  and  _165
REMARK   74  A    between atoms: _165  and  _166
REMARK   75  A    between atoms: _172  and  _174
REMARK   76  A    between atoms: _174  and  _175
REMARK   77  A    between atoms: _174  and  _177
REMARK   78  A    between atoms: _177  and  _178
REMARK   79  A    between atoms: _181  and  _183
REMARK   80  A    between atoms: _183  and  _184
REMARK   81  A    between atoms: _183  and  _186
REMARK   82  A    between atoms: _189  and  _191
REMARK   83  A    between atoms: _191  and  _192
REMARK   84  A    between atoms: _191  and  _194
REMARK   85  A    between atoms: _194  and  _195
REMARK   86  A    between atoms: _198  and  _200
REMARK   87  A    between atoms: _200  and  _201
REMARK   88  A    between atoms: _200  and  _203
REMARK   89  A    between atoms: _203  and  _204
REMARK   90  A    between atoms: _208  and  _209
REMARK   91  A    between atoms: _214  and  _216
REMARK   92  A    between atoms: _216  and  _217
REMARK   93  A    between atoms: _216  and  _219
REMARK   94  A    between atoms: _222  and  _224
REMARK   95  A    between atoms: _224  and  _225
REMARK   96  A    between atoms: _224  and  _227
REMARK   97  A    between atoms: _227  and  _228
REMARK   98  A    between atoms: _233  and  _235
REMARK   99  A    between atoms: _235  and  _236
REMARK  100  A    between atoms: _235  and  _238
REMARK  101  A    between atoms: _238  and  _239
REMARK  102  A    between atoms: _242  and  _244
REMARK  103  A    between atoms: _244  and  _245
REMARK  104  A    between atoms: _244  and  _247
REMARK  105  A    between atoms: _247  and  _248
REMARK  106  A    between atoms: _251  and  _253
REMARK  107  A    between atoms: _253  and  _254
REMARK  108  A    between atoms: _256  and  _258
REMARK  109  A    between atoms: _258  and  _259
REMARK  110  A    between atoms: _258  and  _261
REMARK  111  A    between atoms: _261  and  _262
REMARK  112  A    between atoms: _262  and  _263
REMARK  113  A    between atoms: _263  and  _264
REMARK  114  A    between atoms: _273  and  _275
REMARK  115  A    between atoms: _275  and  _276
REMARK  116  A    between atoms: _275  and  _278
REMARK  117  A    between atoms: _278  and  _279
REMARK  118  A    between atoms: _284  and  _286
REMARK  119  A    between atoms: _286  and  _287
REMARK  120  A    between atoms: _286  and  _289
REMARK  121  A    between atoms: _289  and  _290
REMARK  122  A    between atoms: _290  and  _291
REMARK  123  A    between atoms: _291  and  _292
REMARK  124  A    between atoms: _301  and  _303
REMARK  125  A    between atoms: _303  and  _304
REMARK  126  A    between atoms: _303  and  _306
REMARK  127  A    between atoms: _306  and  _307
REMARK  128  A    between atoms: _310  and  _312
REMARK  129  A    between atoms: _312  and  _313
REMARK  130  A    between atoms: _312  and  _315
REMARK  131  A    between atoms: _315  and  _316
REMARK  132  A    between atoms: _319  and  _321
REMARK  133  A    between atoms: _321  and  _322
REMARK  134  A    between atoms: _321  and  _324
REMARK  135  A    between atoms: _324  and  _325
REMARK  136  A    between atoms: _328  and  _330
REMARK  137  A    between atoms: _330  and  _331
REMARK  138  A    between atoms: _330  and  _333
REMARK  139  A    between atoms: _333  and  _334
REMARK  140  A    between atoms: _337  and  _339
REMARK  141  A    between atoms: _339  and  _340
REMARK  142  A    between atoms: _342  and  _344
REMARK  143  A    between atoms: _344  and  _345
REMARK  144  A    between atoms: _348  and  _350
REMARK  145  A    between atoms: _350  and  _351
REMARK  146  A    between atoms: _350  and  _353
REMARK  147  A    between atoms: _353  and  _354
REMARK  148  A    between atoms: _357  and  _359
REMARK  149  A    between atoms: _359  and  _360
REMARK  150  A    between atoms: _359  and  _362
REMARK  151  A    between atoms: _362  and  _363
REMARK  152  A    between atoms: _366  and  _368
REMARK  153  A    between atoms: _368  and  _369
REMARK  154  A    between atoms: _368  and  _371
REMARK  155  A    between atoms: _371  and  _372
REMARK  156  A    between atoms: _375  and  _377
REMARK  157  A    between atoms: _377  and  _378
REMARK  158  A    between atoms: _377  and  _380
REMARK  159  A    between atoms: _383  and  _385
REMARK  160  A    between atoms: _385  and  _386
REMARK  161  A    between atoms: _385  and  _388
REMARK  162  A    between atoms: _388  and  _389
REMARK  163  A    between atoms: _389  and  _390
REMARK  164  A    between atoms: _390  and  _391
REMARK  165  A    between atoms: _391  and  _392
REMARK  166  A    between atoms: _396  and  _398
REMARK  167  A    between atoms: _398  and  _399
REMARK  168  A    between atoms: _398  and  _401
REMARK  169  A    between atoms: _401  and  _402
REMARK  170  A    between atoms: _402  and  _403
REMARK  171  A    between atoms: _405  and  _407
REMARK  172  A    between atoms: _407  and  _408
REMARK  173  A    between atoms: _407  and  _410
REMARK  174  A    between atoms: _410  and  _411
REMARK  175  A    between atoms: _414  and  _416
REMARK  176  A    between atoms: _416  and  _417
REMARK  177  A    between atoms: _419  and  _421
REMARK  178  A    between atoms: _421  and  _422
REMARK  179  A    between atoms: _424  and  _426
REMARK  180  A    between atoms: _426  and  _427
REMARK  181  A    between atoms: _426  and  _429
REMARK  182  A    between atoms: _429  and  _430
REMARK  183  A    between atoms: _433  and  _435
REMARK  184  A    between atoms: _435  and  _436
REMARK  185  A    between atoms: _438  and  _440
REMARK  186  A    between atoms: _440  and  _441
REMARK  187  A    between atoms: _443  and  _445
REMARK  188  A    between atoms: _445  and  _446
REMARK  189  A    between atoms: _445  and  _448
REMARK  190  A    between atoms: _448  and  _449
REMARK  191  A    between atoms: _455  and  _457
REMARK  192  A    between atoms: _457  and  _458
REMARK  193  A    between atoms: _457  and  _460
REMARK  194  A    between atoms: _460  and  _461
REMARK  195  A    between atoms: _464  and  _466
REMARK  196  A    between atoms: _466  and  _467
REMARK  197  A    between atoms: _466  and  _469
REMARK  198  A    between atoms: _472  and  _474
REMARK  199  A    between atoms: _474  and  _475
REMARK  200  A    between atoms: _474  and  _477
REMARK  201  A    between atoms: _477  and  _478
REMARK  202  A    between atoms: _481  and  _483
REMARK  203  A    between atoms: _483  and  _484
REMARK  204  A    between atoms: _483  and  _486
REMARK  205  A    between atoms: _486  and  _487
REMARK  206  A    between atoms: _491  and  _492
REMARK  207  A    between atoms: _497  and  _499
REMARK  208  A    between atoms: _499  and  _500
REMARK  209  A    between atoms: _499  and  _502
REMARK  210  A    between atoms: _505  and  _507
REMARK  211  A    between atoms: _507  and  _508
REMARK  212  A    between atoms: _507  and  _510
REMARK  213  A    between atoms: _510  and  _511
REMARK  214  A    between atoms: _516  and  _518
REMARK  215  A    between atoms: _518  and  _519
REMARK  216  A    between atoms: _518  and  _521
REMARK  217  A    between atoms: _521  and  _522
REMARK  218  A    between atoms: _525  and  _527
REMARK  219  A    between atoms: _527  and  _528
REMARK  220  A    between atoms: _527  and  _530
REMARK  221  A    between atoms: _530  and  _531
REMARK  222  A    between atoms: _534  and  _536
REMARK  223  A    between atoms: _536  and  _537
REMARK  224  A    between atoms: _539  and  _541
REMARK  225  A    between atoms: _541  and  _542
REMARK  226  A    between atoms: _541  and  _544
REMARK  227  A    between atoms: _544  and  _545
REMARK  228  A    between atoms: _545  and  _546
REMARK  229  A    between atoms: _546  and  _547
REMARK  230  A    between atoms: _556  and  _558
REMARK  231  A    between atoms: _558  and  _559
REMARK  232  A    between atoms: _558  and  _561
REMARK  233  A    between atoms: _561  and  _562
REMARK                            x       y       z     vdW  Elec       q    Type
REMARK                         _______ _______ _______ _____ _____    ______ ____
ROOT
ATOM      1  O   HOH     1       9.269  20.690   7.632  0.00  0.00    +0.000 OA
ENDROOT
TORSDOF 0
REMARK  Name = ../refined-set-2016/2z4o/2z4o_pocket.pdb
REMARK  233 active torsions:
REMARK  status: ('A' for Active; 'I' for Inactive)
REMARK    1  A    between atoms: _1  and  _3
REMARK    2  A    between atoms: _3  and  _4
REMARK    3  A    between atoms: _3  and  _6
REMARK    4  A    between atoms: _6  and  _7
REMARK    5  A    between atoms: _7  and  _8
REMARK    6  A    between atoms: _8  and  _9
REMARK    7  A    between atoms: _11  and  _15
REMARK    8  A    between atoms: _18  and  _20
REMARK    9  A    between atoms: _20  and  _21
REMARK   10  A    between atoms: _20  and  _23
REMARK   11  A    between atoms: _23  and  _24
REMARK   12  A    between atoms: _27  and  _29
REMARK   13  A    between atoms: _29  and  _30
REMARK   14  A    between atoms: _29  and  _32
REMARK   15  A    between atoms: _32  and  _33
REMARK   16  A    between atoms: _36  and  _38
REMARK   17  A    between atoms: _38  and  _39
REMARK   18  A    between atoms: _38  and  _41
REMARK   19  A    between atoms: _41  and  _42
REMARK   20  A    between atoms: _45  and  _47
REMARK   21  A    between atoms: _47  and  _48
REMARK   22  A    between atoms: _47  and  _50
REMARK   23  A    between atoms: _50  and  _51
REMARK   24  A    between atoms: _54  and  _56
REMARK   25  A    between atoms: _56  and  _57
REMARK   26  A    between atoms: _59  and  _61
REMARK   27  A    between atoms: _61  and  _62
REMARK   28  A    between atoms: _65  and  _67
REMARK   29  A    between atoms: _67  and  _68
REMARK   30  A    between atoms: _67  and  _70
REMARK   31  A    between atoms: _70  and  _71
REMARK   32  A    between atoms: _74  and  _76
REMARK   33  A    between atoms: _76  and  _77
REMARK   34  A    between atoms: _76  and  _79
REMARK   35  A    between atoms: _79  and  _80
REMARK   36  A    between atoms: _83  and  _85
REMARK   37  A    between atoms: _85  and  _86
REMARK   38  A    between atoms: _85  and  _88
REMARK   39  A    between atoms: _88  and  _89
REMARK   40  A    between atoms: _92  and  _94
REMARK   41  A    between atoms: _94  and  _95
REMARK   42  A    between atoms: _94  and  _97
REMARK   43  A    between atoms: _100  and  _102
REMARK   44  A    between atoms: _102  and  _103
REMARK   45  A    between atoms: _102  and  _105
REMARK   46  A    between atoms: _105  and  _106
REMARK   47  A    between atoms: _106  and  _107
REMARK   48  A    between atoms: _107  and  _108
REMARK   49  A    between atoms: _108  and  _109
REMARK   50  A    between atoms: _113  and  _115
REMARK   51  A    between atoms: _115  and  _116
REMARK   52  A    between atoms: _115  and  _118
REMARK   53  A    between atoms: _118  and  _119
REMARK   54  A    between atoms: _119  and  _120
REMARK   55  A    between atoms: _122  and  _124
REMARK   56  A    between atoms: _124  and  _125
REMARK   57  A    between atoms: _124  and  _127
REMARK   58  A    between atoms: _127  and  _128
REMARK   59  A    between atoms: _131  and  _133
REMARK   60  A    between atoms: _133  and  _134
REMARK   61  A    between atoms: _136  and  _138
REMARK   62  A    between atoms: _138  and  _139
REMARK   63  A    between atoms: _141  and  _143
REMARK   64  A    between atoms: _143  and  _144
REMARK   65  A    between atoms: _143  and  _146
REMARK   66  A    between atoms: _146  and  _147
REMARK   67  A    between atoms: _150  and  _152
REMARK   68  A    between atoms: _152  and  _153
REMARK   69  A    between atoms: _155  and  _157
REMARK   70  A    between atoms: _157  and  _158
REMARK   71  A    between atoms: _160  and  _162
REMARK   72  A    between atoms: _162  and  _163
REMARK   73  A    between atoms: _162  and  _165
REMARK   74  A    between atoms: _165  and  _166
REMARK   75  A    between atoms: _172  and  _174
REMARK   76  A    between atoms: _174  and  _175
REMARK   77  A    between atoms: _174  and  _177
REMARK   78  A    between atoms: _177  and  _178
REMARK   79  A    between atoms: _181  and  _183
REMARK   80  A    between atoms: _183  and  _184
REMARK   81  A    between atoms: _183  and  _186
REMARK   82  A    between atoms: _189  and  _191
REMARK   83  A    between atoms: _191  and  _192
REMARK   84  A    between atoms: _191  and  _194
REMARK   85  A    between atoms: _194  and  _195
REMARK   86  A    between atoms: _198  and  _200
REMARK   87  A    between atoms: _200  and  _201
REMARK   88  A    between atoms: _200  and  _203
REMARK   89  A    between atoms: _203  and  _204
REMARK   90  A    between atoms: _208  and  _209
REMARK   91  A    between atoms: _214  and  _216
REMARK   92  A    between atoms: _216  and  _217
REMARK   93  A    between atoms: _216  and  _219
REMARK   94  A    between atoms: _222  and  _224
REMARK   95  A    between atoms: _224  and  _225
REMARK   96  A    between atoms: _224  and  _227
REMARK   97  A    between atoms: _227  and  _228
REMARK   98  A    between atoms: _233  and  _235
REMARK   99  A    between atoms: _235  and  _236
REMARK  100  A    between atoms: _235  and  _238
REMARK  101  A    between atoms: _238  and  _239
REMARK  102  A    between atoms: _242  and  _244
REMARK  103  A    between atoms: _244  and  _245
REMARK  104  A    between atoms: _244  and  _247
REMARK  105  A    between atoms: _247  and  _248
REMARK  106  A    between atoms: _251  and  _253
REMARK  107  A    between atoms: _253  and  _254
REMARK  108  A    between atoms: _256  and  _258
REMARK  109  A    between atoms: _258  and  _259
REMARK  110  A    between atoms: _258  and  _261
REMARK  111  A    between atoms: _261  and  _262
REMARK  112  A    between atoms: _262  and  _263
REMARK  113  A    between atoms: _263  and  _264
REMARK  114  A    between atoms: _273  and  _275
REMARK  115  A    between atoms: _275  and  _276
REMARK  116  A    between atoms: _275  and  _278
REMARK  117  A    between atoms: _278  and  _279
REMARK  118  A    between atoms: _284  and  _286
REMARK  119  A    between atoms: _286  and  _287
REMARK  120  A    between atoms: _286  and  _289
REMARK  121  A    between atoms: _289  and  _290
REMARK  122  A    between atoms: _290  and  _291
REMARK  123  A    between atoms: _291  and  _292
REMARK  124  A    between atoms: _301  and  _303
REMARK  125  A    between atoms: _303  and  _304
REMARK  126  A    between atoms: _303  and  _306
REMARK  127  A    between atoms: _306  and  _307
REMARK  128  A    between atoms: _310  and  _312
REMARK  129  A    between atoms: _312  and  _313
REMARK  130  A    between atoms: _312  and  _315
REMARK  131  A    between atoms: _315  and  _316
REMARK  132  A    between atoms: _319  and  _321
REMARK  133  A    between atoms: _321  and  _322
REMARK  134  A    between atoms: _321  and  _324
REMARK  135  A    between atoms: _324  and  _325
REMARK  136  A    between atoms: _328  and  _330
REMARK  137  A    between atoms: _330  and  _331
REMARK  138  A    between atoms: _330  and  _333
REMARK  139  A    between atoms: _333  and  _334
REMARK  140  A    between atoms: _337  and  _339
REMARK  141  A    between atoms: _339  and  _340
REMARK  142  A    between atoms: _342  and  _344
REMARK  143  A    between atoms: _344  and  _345
REMARK  144  A    between atoms: _348  and  _350
REMARK  145  A    between atoms: _350  and  _351
REMARK  146  A    between atoms: _350  and  _353
REMARK  147  A    between atoms: _353  and  _354
REMARK  148  A    between atoms: _357  and  _359
REMARK  149  A    between atoms: _359  and  _360
REMARK  150  A    between atoms: _359  and  _362
REMARK  151  A    between atoms: _362  and  _363
REMARK  152  A    between atoms: _366  and  _368
REMARK  153  A    between atoms: _368  and  _369
REMARK  154  A    between atoms: _368  and  _371
REMARK  155  A    between atoms: _371  and  _372
REMARK  156  A    between atoms: _375  and  _377
REMARK  157  A    between atoms: _377  and  _378
REMARK  158  A    between atoms: _377  and  _380
REMARK  159  A    between atoms: _383  and  _385
REMARK  160  A    between atoms: _385  and  _386
REMARK  161  A    between atoms: _385  and  _388
REMARK  162  A    between atoms: _388  and  _389
REMARK  163  A    between atoms: _389  and  _390
REMARK  164  A    between atoms: _390  and  _391
REMARK  165  A    between atoms: _391  and  _392
REMARK  166  A    between atoms: _396  and  _398
REMARK  167  A    between atoms: _398  and  _399
REMARK  168  A    between atoms: _398  and  _401
REMARK  169  A    between atoms: _401  and  _402
REMARK  170  A    between atoms: _402  and  _403
REMARK  171  A    between atoms: _405  and  _407
REMARK  172  A    between atoms: _407  and  _408
REMARK  173  A    between atoms: _407  and  _410
REMARK  174  A    between atoms: _410  and  _411
REMARK  175  A    between atoms: _414  and  _416
REMARK  176  A    between atoms: _416  and  _417
REMARK  177  A    between atoms: _419  and  _421
REMARK  178  A    between atoms: _421  and  _422
REMARK  179  A    between atoms: _424  and  _426
REMARK  180  A    between atoms: _426  and  _427
REMARK  181  A    between atoms: _426  and  _429
REMARK  182  A    between atoms: _429  and  _430
REMARK  183  A    between atoms: _433  and  _435
REMARK  184  A    between atoms: _435  and  _436
REMARK  185  A    between atoms: _438  and  _440
REMARK  186  A    between atoms: _440  and  _441
REMARK  187  A    between atoms: _443  and  _445
REMARK  188  A    between atoms: _445  and  _446
REMARK  189  A    between atoms: _445  and  _448
REMARK  190  A    between atoms: _448  and  _449
REMARK  191  A    between atoms: _455  and  _457
REMARK  192  A    between atoms: _457  and  _458
REMARK  193  A    between atoms: _457  and  _460
REMARK  194  A    between atoms: _460  and  _461
REMARK  195  A    between atoms: _464  and  _466
REMARK  196  A    between atoms: _466  and  _467
REMARK  197  A    between atoms: _466  and  _469
REMARK  198  A    between atoms: _472  and  _474
REMARK  199  A    between atoms: _474  and  _475
REMARK  200  A    between atoms: _474  and  _477
REMARK  201  A    between atoms: _477  and  _478
REMARK  202  A    between atoms: _481  and  _483
REMARK  203  A    between atoms: _483  and  _484
REMARK  204  A    between atoms: _483  and  _486
REMARK  205  A    between atoms: _486  and  _487
REMARK  206  A    between atoms: _491  and  _492
REMARK  207  A    between atoms: _497  and  _499
REMARK  208  A    between atoms: _499  and  _500
REMARK  209  A    between atoms: _499  and  _502
REMARK  210  A    between atoms: _505  and  _507
REMARK  211  A    between atoms: _507  and  _508
REMARK  212  A    between atoms: _507  and  _510
REMARK  213  A    between atoms: _510  and  _511
REMARK  214  A    between atoms: _516  and  _518
REMARK  215  A    between atoms: _518  and  _519
REMARK  216  A    between atoms: _518  and  _521
REMARK  217  A    between atoms: _521  and  _522
REMARK  218  A    between atoms: _525  and  _527
REMARK  219  A    between atoms: _527  and  _528
REMARK  220  A    between atoms: _527  and  _530
REMARK  221  A    between atoms: _530  and  _531
REMARK  222  A    between atoms: _534  and  _536
REMARK  223  A    between atoms: _536  and  _537
REMARK  224  A    between atoms: _539  and  _541
REMARK  225  A    between atoms: _541  and  _542
REMARK  226  A    between atoms: _541  and  _544
REMARK  227  A    between atoms: _544  and  _545
REMARK  228  A    between atoms: _545  and  _546
REMARK  229  A    between atoms: _546  and  _547
REMARK  230  A    between atoms: _556  and  _558
REMARK  231  A    between atoms: _558  and  _559
REMARK  232  A    between atoms: _558  and  _561
REMARK  233  A    between atoms: _561  and  _562
REMARK                            x       y       z     vdW  Elec       q    Type
REMARK                         _______ _______ _______ _____ _____    ______ ____
ROOT
ATOM      1  O   HOH     1      24.703  33.739  16.060  0.00  0.00    +0.000 OA
ENDROOT
TORSDOF 0
REMARK  Name = ../refined-set-2016/2z4o/2z4o_pocket.pdb
REMARK  233 active torsions:
REMARK  status: ('A' for Active; 'I' for Inactive)
REMARK    1  A    between atoms: _1  and  _3
REMARK    2  A    between atoms: _3  and  _4
REMARK    3  A    between atoms: _3  and  _6
REMARK    4  A    between atoms: _6  and  _7
REMARK    5  A    between atoms: _7  and  _8
REMARK    6  A    between atoms: _8  and  _9
REMARK    7  A    between atoms: _11  and  _15
REMARK    8  A    between atoms: _18  and  _20
REMARK    9  A    between atoms: _20  and  _21
REMARK   10  A    between atoms: _20  and  _23
REMARK   11  A    between atoms: _23  and  _24
REMARK   12  A    between atoms: _27  and  _29
REMARK   13  A    between atoms: _29  and  _30
REMARK   14  A    between atoms: _29  and  _32
REMARK   15  A    between atoms: _32  and  _33
REMARK   16  A    between atoms: _36  and  _38
REMARK   17  A    between atoms: _38  and  _39
REMARK   18  A    between atoms: _38  and  _41
REMARK   19  A    between atoms: _41  and  _42
REMARK   20  A    between atoms: _45  and  _47
REMARK   21  A    between atoms: _47  and  _48
REMARK   22  A    between atoms: _47  and  _50
REMARK   23  A    between atoms: _50  and  _51
REMARK   24  A    between atoms: _54  and  _56
REMARK   25  A    between atoms: _56  and  _57
REMARK   26  A    between atoms: _59  and  _61
REMARK   27  A    between atoms: _61  and  _62
REMARK   28  A    between atoms: _65  and  _67
REMARK   29  A    between atoms: _67  and  _68
REMARK   30  A    between atoms: _67  and  _70
REMARK   31  A    between atoms: _70  and  _71
REMARK   32  A    between atoms: _74  and  _76
REMARK   33  A    between atoms: _76  and  _77
REMARK   34  A    between atoms: _76  and  _79
REMARK   35  A    between atoms: _79  and  _80
REMARK   36  A    between atoms: _83  and  _85
REMARK   37  A    between atoms: _85  and  _86
REMARK   38  A    between atoms: _85  and  _88
REMARK   39  A    between atoms: _88  and  _89
REMARK   40  A    between atoms: _92  and  _94
REMARK   41  A    between atoms: _94  and  _95
REMARK   42  A    between atoms: _94  and  _97
REMARK   43  A    between atoms: _100  and  _102
REMARK   44  A    between atoms: _102  and  _103
REMARK   45  A    between atoms: _102  and  _105
REMARK   46  A    between atoms: _105  and  _106
REMARK   47  A    between atoms: _106  and  _107
REMARK   48  A    between atoms: _107  and  _108
REMARK   49  A    between atoms: _108  and  _109
REMARK   50  A    between atoms: _113  and  _115
REMARK   51  A    between atoms: _115  and  _116
REMARK   52  A    between atoms: _115  and  _118
REMARK   53  A    between atoms: _118  and  _119
REMARK   54  A    between atoms: _119  and  _120
REMARK   55  A    between atoms: _122  and  _124
REMARK   56  A    between atoms: _124  and  _125
REMARK   57  A    between atoms: _124  and  _127
REMARK   58  A    between atoms: _127  and  _128
REMARK   59  A    between atoms: _131  and  _133
REMARK   60  A    between atoms: _133  and  _134
REMARK   61  A    between atoms: _136  and  _138
REMARK   62  A    between atoms: _138  and  _139
REMARK   63  A    between atoms: _141  and  _143
REMARK   64  A    between atoms: _143  and  _144
REMARK   65  A    between atoms: _143  and  _146
REMARK   66  A    between atoms: _146  and  _147
REMARK   67  A    between atoms: _150  and  _152
REMARK   68  A    between atoms: _152  and  _153
REMARK   69  A    between atoms: _155  and  _157
REMARK   70  A    between atoms: _157  and  _158
REMARK   71  A    between atoms: _160  and  _162
REMARK   72  A    between atoms: _162  and  _163
REMARK   73  A    between atoms: _162  and  _165
REMARK   74  A    between atoms: _165  and  _166
REMARK   75  A    between atoms: _172  and  _174
REMARK   76  A    between atoms: _174  and  _175
REMARK   77  A    between atoms: _174  and  _177
REMARK   78  A    between atoms: _177  and  _178
REMARK   79  A    between atoms: _181  and  _183
REMARK   80  A    between atoms: _183  and  _184
REMARK   81  A    between atoms: _183  and  _186
REMARK   82  A    between atoms: _189  and  _191
REMARK   83  A    between atoms: _191  and  _192
REMARK   84  A    between atoms: _191  and  _194
REMARK   85  A    between atoms: _194  and  _195
REMARK   86  A    between atoms: _198  and  _200
REMARK   87  A    between atoms: _200  and  _201
REMARK   88  A    between atoms: _200  and  _203
REMARK   89  A    between atoms: _203  and  _204
REMARK   90  A    between atoms: _208  and  _209
REMARK   91  A    between atoms: _214  and  _216
REMARK   92  A    between atoms: _216  and  _217
REMARK   93  A    between atoms: _216  and  _219
REMARK   94  A    between atoms: _222  and  _224
REMARK   95  A    between atoms: _224  and  _225
REMARK   96  A    between atoms: _224  and  _227
REMARK   97  A    between atoms: _227  and  _228
REMARK   98  A    between atoms: _233  and  _235
REMARK   99  A    between atoms: _235  and  _236
REMARK  100  A    between atoms: _235  and  _238
REMARK  101  A    between atoms: _238  and  _239
REMARK  102  A    between atoms: _242  and  _244
REMARK  103  A    between atoms: _244  and  _245
REMARK  104  A    between atoms: _244  and  _247
REMARK  105  A    between atoms: _247  and  _248
REMARK  106  A    between atoms: _251  and  _253
REMARK  107  A    between atoms: _253  and  _254
REMARK  108  A    between atoms: _256  and  _258
REMARK  109  A    between atoms: _258  and  _259
REMARK  110  A    between atoms: _258  and  _261
REMARK  111  A    between atoms: _261  and  _262
REMARK  112  A    between atoms: _262  and  _263
REMARK  113  A    between atoms: _263  and  _264
REMARK  114  A    between atoms: _273  and  _275
REMARK  115  A    between atoms: _275  and  _276
REMARK  116  A    between atoms: _275  and  _278
REMARK  117  A    between atoms: _278  and  _279
REMARK  118  A    between atoms: _284  and  _286
REMARK  119  A    between atoms: _286  and  _287
REMARK  120  A    between atoms: _286  and  _289
REMARK  121  A    between atoms: _289  and  _290
REMARK  122  A    between atoms: _290  and  _291
REMARK  123  A    between atoms: _291  and  _292
REMARK  124  A    between atoms: _301  and  _303
REMARK  125  A    between atoms: _303  and  _304
REMARK  126  A    between atoms: _303  and  _306
REMARK  127  A    between atoms: _306  and  _307
REMARK  128  A    between atoms: _310  and  _312
REMARK  129  A    between atoms: _312  and  _313
REMARK  130  A    between atoms: _312  and  _315
REMARK  131  A    between atoms: _315  and  _316
REMARK  132  A    between atoms: _319  and  _321
REMARK  133  A    between atoms: _321  and  _322
REMARK  134  A    between atoms: _321  and  _324
REMARK  135  A    between atoms: _324  and  _325
REMARK  136  A    between atoms: _328  and  _330
REMARK  137  A    between atoms: _330  and  _331
REMARK  138  A    between atoms: _330  and  _333
REMARK  139  A    between atoms: _333  and  _334
REMARK  140  A    between atoms: _337  and  _339
REMARK  141  A    between atoms: _339  and  _340
REMARK  142  A    between atoms: _342  and  _344
REMARK  143  A    between atoms: _344  and  _345
REMARK  144  A    between atoms: _348  and  _350
REMARK  145  A    between atoms: _350  and  _351
REMARK  146  A    between atoms: _350  and  _353
REMARK  147  A    between atoms: _353  and  _354
REMARK  148  A    between atoms: _357  and  _359
REMARK  149  A    between atoms: _359  and  _360
REMARK  150  A    between atoms: _359  and  _362
REMARK  151  A    between atoms: _362  and  _363
REMARK  152  A    between atoms: _366  and  _368
REMARK  153  A    between atoms: _368  and  _369
REMARK  154  A    between atoms: _368  and  _371
REMARK  155  A    between atoms: _371  and  _372
REMARK  156  A    between atoms: _375  and  _377
REMARK  157  A    between atoms: _377  and  _378
REMARK  158  A    between atoms: _377  and  _380
REMARK  159  A    between atoms: _383  and  _385
REMARK  160  A    between atoms: _385  and  _386
REMARK  161  A    between atoms: _385  and  _388
REMARK  162  A    between atoms: _388  and  _389
REMARK  163  A    between atoms: _389  and  _390
REMARK  164  A    between atoms: _390  and  _391
REMARK  165  A    between atoms: _391  and  _392
REMARK  166  A    between atoms: _396  and  _398
REMARK  167  A    between atoms: _398  and  _399
REMARK  168  A    between atoms: _398  and  _401
REMARK  169  A    between atoms: _401  and  _402
REMARK  170  A    between atoms: _402  and  _403
REMARK  171  A    between atoms: _405  and  _407
REMARK  172  A    between atoms: _407  and  _408
REMARK  173  A    between atoms: _407  and  _410
REMARK  174  A    between atoms: _410  and  _411
REMARK  175  A    between atoms: _414  and  _416
REMARK  176  A    between atoms: _416  and  _417
REMARK  177  A    between atoms: _419  and  _421
REMARK  178  A    between atoms: _421  and  _422
REMARK  179  A    between atoms: _424  and  _426
REMARK  180  A    between atoms: _426  and  _427
REMARK  181  A    between atoms: _426  and  _429
REMARK  182  A    between atoms: _429  and  _430
REMARK  183  A    between atoms: _433  and  _435
REMARK  184  A    between atoms: _435  and  _436
REMARK  185  A    between atoms: _438  and  _440
REMARK  186  A    between atoms: _440  and  _441
REMARK  187  A    between atoms: _443  and  _445
REMARK  188  A    between atoms: _445  and  _446
REMARK  189  A    between atoms: _445  and  _448
REMARK  190  A    between atoms: _448  and  _449
REMARK  191  A    between atoms: _455  and  _457
REMARK  192  A    between atoms: _457  and  _458
REMARK  193  A    between atoms: _457  and  _460
REMARK  194  A    between atoms: _460  and  _461
REMARK  195  A    between atoms: _464  and  _466
REMARK  196  A    between atoms: _466  and  _467
REMARK  197  A    between atoms: _466  and  _469
REMARK  198  A    between atoms: _472  and  _474
REMARK  199  A    between atoms: _474  and  _475
REMARK  200  A    between atoms: _474  and  _477
REMARK  201  A    between atoms: _477  and  _478
REMARK  202  A    between atoms: _481  and  _483
REMARK  203  A    between atoms: _483  and  _484
REMARK  204  A    between atoms: _483  and  _486
REMARK  205  A    between atoms: _486  and  _487
REMARK  206  A    between atoms: _491  and  _492
REMARK  207  A    between atoms: _497  and  _499
REMARK  208  A    between atoms: _499  and  _500
REMARK  209  A    between atoms: _499  and  _502
REMARK  210  A    between atoms: _505  and  _507
REMARK  211  A    between atoms: _507  and  _508
REMARK  212  A    between atoms: _507  and  _510
REMARK  213  A    between atoms: _510  and  _511
REMARK  214  A    between atoms: _516  and  _518
REMARK  215  A    between atoms: _518  and  _519
REMARK  216  A    between atoms: _518  and  _521
REMARK  217  A    between atoms: _521  and  _522
REMARK  218  A    between atoms: _525  and  _527
REMARK  219  A    between atoms: _527  and  _528
REMARK  220  A    between atoms: _527  and  _530
REMARK  221  A    between atoms: _530  and  _531
REMARK  222  A    between atoms: _534  and  _536
REMARK  223  A    between atoms: _536  and  _537
REMARK  224  A    between atoms: _539  and  _541
REMARK  225  A    between atoms: _541  and  _542
REMARK  226  A    between atoms: _541  and  _544
REMARK  227  A    between atoms: _544  and  _545
REMARK  228  A    between atoms: _545  and  _546
REMARK  229  A    between atoms: _546  and  _547
REMARK  230  A    between atoms: _556  and  _558
REMARK  231  A    between atoms: _558  and  _559
REMARK  232  A    between atoms: _558  and  _561
REMARK  233  A    between atoms: _561  and  _562
REMARK                            x       y       z     vdW  Elec       q    Type
REMARK                         _______ _______ _______ _____ _____    ______ ____
ROOT
ATOM      1  O   HOH     1       7.459  23.823  18.193  0.00  0.00    +0.000 OA
ENDROOT
TORSDOF 0
REMARK  Name = ../refined-set-2016/2z4o/2z4o_pocket.pdb
REMARK  233 active torsions:
REMARK  status: ('A' for Active; 'I' for Inactive)
REMARK    1  A    between atoms: _1  and  _3
REMARK    2  A    between atoms: _3  and  _4
REMARK    3  A    between atoms: _3  and  _6
REMARK    4  A    between atoms: _6  and  _7
REMARK    5  A    between atoms: _7  and  _8
REMARK    6  A    between atoms: _8  and  _9
REMARK    7  A    between atoms: _11  and  _15
REMARK    8  A    between atoms: _18  and  _20
REMARK    9  A    between atoms: _20  and  _21
REMARK   10  A    between atoms: _20  and  _23
REMARK   11  A    between atoms: _23  and  _24
REMARK   12  A    between atoms: _27  and  _29
REMARK   13  A    between atoms: _29  and  _30
REMARK   14  A    between atoms: _29  and  _32
REMARK   15  A    between atoms: _32  and  _33
REMARK   16  A    between atoms: _36  and  _38
REMARK   17  A    between atoms: _38  and  _39
REMARK   18  A    between atoms: _38  and  _41
REMARK   19  A    between atoms: _41  and  _42
REMARK   20  A    between atoms: _45  and  _47
REMARK   21  A    between atoms: _47  and  _48
REMARK   22  A    between atoms: _47  and  _50
REMARK   23  A    between atoms: _50  and  _51
REMARK   24  A    between atoms: _54  and  _56
REMARK   25  A    between atoms: _56  and  _57
REMARK   26  A    between atoms: _59  and  _61
REMARK   27  A    between atoms: _61  and  _62
REMARK   28  A    between atoms: _65  and  _67
REMARK   29  A    between atoms: _67  and  _68
REMARK   30  A    between atoms: _67  and  _70
REMARK   31  A    between atoms: _70  and  _71
REMARK   32  A    between atoms: _74  and  _76
REMARK   33  A    between atoms: _76  and  _77
REMARK   34  A    between atoms: _76  and  _79
REMARK   35  A    between atoms: _79  and  _80
REMARK   36  A    between atoms: _83  and  _85
REMARK   37  A    between atoms: _85  and  _86
REMARK   38  A    between atoms: _85  and  _88
REMARK   39  A    between atoms: _88  and  _89
REMARK   40  A    between atoms: _92  and  _94
REMARK   41  A    between atoms: _94  and  _95
REMARK   42  A    between atoms: _94  and  _97
REMARK   43  A    between atoms: _100  and  _102
REMARK   44  A    between atoms: _102  and  _103
REMARK   45  A    between atoms: _102  and  _105
REMARK   46  A    between atoms: _105  and  _106
REMARK   47  A    between atoms: _106  and  _107
REMARK   48  A    between atoms: _107  and  _108
REMARK   49  A    between atoms: _108  and  _109
REMARK   50  A    between atoms: _113  and  _115
REMARK   51  A    between atoms: _115  and  _116
REMARK   52  A    between atoms: _115  and  _118
REMARK   53  A    between atoms: _118  and  _119
REMARK   54  A    between atoms: _119  and  _120
REMARK   55  A    between atoms: _122  and  _124
REMARK   56  A    between atoms: _124  and  _125
REMARK   57  A    between atoms: _124  and  _127
REMARK   58  A    between atoms: _127  and  _128
REMARK   59  A    between atoms: _131  and  _133
REMARK   60  A    between atoms: _133  and  _134
REMARK   61  A    between atoms: _136  and  _138
REMARK   62  A    between atoms: _138  and  _139
REMARK   63  A    between atoms: _141  and  _143
REMARK   64  A    between atoms: _143  and  _144
REMARK   65  A    between atoms: _143  and  _146
REMARK   66  A    between atoms: _146  and  _147
REMARK   67  A    between atoms: _150  and  _152
REMARK   68  A    between atoms: _152  and  _153
REMARK   69  A    between atoms: _155  and  _157
REMARK   70  A    between atoms: _157  and  _158
REMARK   71  A    between atoms: _160  and  _162
REMARK   72  A    between atoms: _162  and  _163
REMARK   73  A    between atoms: _162  and  _165
REMARK   74  A    between atoms: _165  and  _166
REMARK   75  A    between atoms: _172  and  _174
REMARK   76  A    between atoms: _174  and  _175
REMARK   77  A    between atoms: _174  and  _177
REMARK   78  A    between atoms: _177  and  _178
REMARK   79  A    between atoms: _181  and  _183
REMARK   80  A    between atoms: _183  and  _184
REMARK   81  A    between atoms: _183  and  _186
REMARK   82  A    between atoms: _189  and  _191
REMARK   83  A    between atoms: _191  and  _192
REMARK   84  A    between atoms: _191  and  _194
REMARK   85  A    between atoms: _194  and  _195
REMARK   86  A    between atoms: _198  and  _200
REMARK   87  A    between atoms: _200  and  _201
REMARK   88  A    between atoms: _200  and  _203
REMARK   89  A    between atoms: _203  and  _204
REMARK   90  A    between atoms: _208  and  _209
REMARK   91  A    between atoms: _214  and  _216
REMARK   92  A    between atoms: _216  and  _217
REMARK   93  A    between atoms: _216  and  _219
REMARK   94  A    between atoms: _222  and  _224
REMARK   95  A    between atoms: _224  and  _225
REMARK   96  A    between atoms: _224  and  _227
REMARK   97  A    between atoms: _227  and  _228
REMARK   98  A    between atoms: _233  and  _235
REMARK   99  A    between atoms: _235  and  _236
REMARK  100  A    between atoms: _235  and  _238
REMARK  101  A    between atoms: _238  and  _239
REMARK  102  A    between atoms: _242  and  _244
REMARK  103  A    between atoms: _244  and  _245
REMARK  104  A    between atoms: _244  and  _247
REMARK  105  A    between atoms: _247  and  _248
REMARK  106  A    between atoms: _251  and  _253
REMARK  107  A    between atoms: _253  and  _254
REMARK  108  A    between atoms: _256  and  _258
REMARK  109  A    between atoms: _258  and  _259
REMARK  110  A    between atoms: _258  and  _261
REMARK  111  A    between atoms: _261  and  _262
REMARK  112  A    between atoms: _262  and  _263
REMARK  113  A    between atoms: _263  and  _264
REMARK  114  A    between atoms: _273  and  _275
REMARK  115  A    between atoms: _275  and  _276
REMARK  116  A    between atoms: _275  and  _278
REMARK  117  A    between atoms: _278  and  _279
REMARK  118  A    between atoms: _284  and  _286
REMARK  119  A    between atoms: _286  and  _287
REMARK  120  A    between atoms: _286  and  _289
REMARK  121  A    between atoms: _289  and  _290
REMARK  122  A    between atoms: _290  and  _291
REMARK  123  A    between atoms: _291  and  _292
REMARK  124  A    between atoms: _301  and  _303
REMARK  125  A    between atoms: _303  and  _304
REMARK  126  A    between atoms: _303  and  _306
REMARK  127  A    between atoms: _306  and  _307
REMARK  128  A    between atoms: _310  and  _312
REMARK  129  A    between atoms: _312  and  _313
REMARK  130  A    between atoms: _312  and  _315
REMARK  131  A    between atoms: _315  and  _316
REMARK  132  A    between atoms: _319  and  _321
REMARK  133  A    between atoms: _321  and  _322
REMARK  134  A    between atoms: _321  and  _324
REMARK  135  A    between atoms: _324  and  _325
REMARK  136  A    between atoms: _328  and  _330
REMARK  137  A    between atoms: _330  and  _331
REMARK  138  A    between atoms: _330  and  _333
REMARK  139  A    between atoms: _333  and  _334
REMARK  140  A    between atoms: _337  and  _339
REMARK  141  A    between atoms: _339  and  _340
REMARK  142  A    between atoms: _342  and  _344
REMARK  143  A    between atoms: _344  and  _345
REMARK  144  A    between atoms: _348  and  _350
REMARK  145  A    between atoms: _350  and  _351
REMARK  146  A    between atoms: _350  and  _353
REMARK  147  A    between atoms: _353  and  _354
REMARK  148  A    between atoms: _357  and  _359
REMARK  149  A    between atoms: _359  and  _360
REMARK  150  A    between atoms: _359  and  _362
REMARK  151  A    between atoms: _362  and  _363
REMARK  152  A    between atoms: _366  and  _368
REMARK  153  A    between atoms: _368  and  _369
REMARK  154  A    between atoms: _368  and  _371
REMARK  155  A    between atoms: _371  and  _372
REMARK  156  A    between atoms: _375  and  _377
REMARK  157  A    between atoms: _377  and  _378
REMARK  158  A    between atoms: _377  and  _380
REMARK  159  A    between atoms: _383  and  _385
REMARK  160  A    between atoms: _385  and  _386
REMARK  161  A    between atoms: _385  and  _388
REMARK  162  A    between atoms: _388  and  _389
REMARK  163  A    between atoms: _389  and  _390
REMARK  164  A    between atoms: _390  and  _391
REMARK  165  A    between atoms: _391  and  _392
REMARK  166  A    between atoms: _396  and  _398
REMARK  167  A    between atoms: _398  and  _399
REMARK  168  A    between atoms: _398  and  _401
REMARK  169  A    between atoms: _401  and  _402
REMARK  170  A    between atoms: _402  and  _403
REMARK  171  A    between atoms: _405  and  _407
REMARK  172  A    between atoms: _407  and  _408
REMARK  173  A    between atoms: _407  and  _410
REMARK  174  A    between atoms: _410  and  _411
REMARK  175  A    between atoms: _414  and  _416
REMARK  176  A    between atoms: _416  and  _417
REMARK  177  A    between atoms: _419  and  _421
REMARK  178  A    between atoms: _421  and  _422
REMARK  179  A    between atoms: _424  and  _426
REMARK  180  A    between atoms: _426  and  _427
REMARK  181  A    between atoms: _426  and  _429
REMARK  182  A    between atoms: _429  and  _430
REMARK  183  A    between atoms: _433  and  _435
REMARK  184  A    between atoms: _435  and  _436
REMARK  185  A    between atoms: _438  and  _440
REMARK  186  A    between atoms: _440  and  _441
REMARK  187  A    between atoms: _443  and  _445
REMARK  188  A    between atoms: _445  and  _446
REMARK  189  A    between atoms: _445  and  _448
REMARK  190  A    between atoms: _448  and  _449
REMARK  191  A    between atoms: _455  and  _457
REMARK  192  A    between atoms: _457  and  _458
REMARK  193  A    between atoms: _457  and  _460
REMARK  194  A    between atoms: _460  and  _461
REMARK  195  A    between atoms: _464  and  _466
REMARK  196  A    between atoms: _466  and  _467
REMARK  197  A    between atoms: _466  and  _469
REMARK  198  A    between atoms: _472  and  _474
REMARK  199  A    between atoms: _474  and  _475
REMARK  200  A    between atoms: _474  and  _477
REMARK  201  A    between atoms: _477  and  _478
REMARK  202  A    between atoms: _481  and  _483
REMARK  203  A    between atoms: _483  and  _484
REMARK  204  A    between atoms: _483  and  _486
REMARK  205  A    between atoms: _486  and  _487
REMARK  206  A    between atoms: _491  and  _492
REMARK  207  A    between atoms: _497  and  _499
REMARK  208  A    between atoms: _499  and  _500
REMARK  209  A    between atoms: _499  and  _502
REMARK  210  A    between atoms: _505  and  _507
REMARK  211  A    between atoms: _507  and  _508
REMARK  212  A    between atoms: _507  and  _510
REMARK  213  A    between atoms: _510  and  _511
REMARK  214  A    between atoms: _516  and  _518
REMARK  215  A    between atoms: _518  and  _519
REMARK  216  A    between atoms: _518  and  _521
REMARK  217  A    between atoms: _521  and  _522
REMARK  218  A    between atoms: _525  and  _527
REMARK  219  A    between atoms: _527  and  _528
REMARK  220  A    between atoms: _527  and  _530
REMARK  221  A    between atoms: _530  and  _531
REMARK  222  A    between atoms: _534  and  _536
REMARK  223  A    between atoms: _536  and  _537
REMARK  224  A    between atoms: _539  and  _541
REMARK  225  A    between atoms: _541  and  _542
REMARK  226  A    between atoms: _541  and  _544
REMARK  227  A    between atoms: _544  and  _545
REMARK  228  A    between atoms: _545  and  _546
REMARK  229  A    between atoms: _546  and  _547
REMARK  230  A    between atoms: _556  and  _558
REMARK  231  A    between atoms: _558  and  _559
REMARK  232  A    between atoms: _558  and  _561
REMARK  233  A    between atoms: _561  and  _562
REMARK                            x       y       z     vdW  Elec       q    Type
REMARK                         _______ _______ _______ _____ _____    ______ ____
ROOT
ATOM      1  O   HOH     1       9.332  16.087  26.670  0.00  0.00    +0.000 OA
ENDROOT
TORSDOF 0
REMARK  Name = ../refined-set-2016/2z4o/2z4o_pocket.pdb
REMARK  233 active torsions:
REMARK  status: ('A' for Active; 'I' for Inactive)
REMARK    1  A    between atoms: _1  and  _3
REMARK    2  A    between atoms: _3  and  _4
REMARK    3  A    between atoms: _3  and  _6
REMARK    4  A    between atoms: _6  and  _7
REMARK    5  A    between atoms: _7  and  _8
REMARK    6  A    between atoms: _8  and  _9
REMARK    7  A    between atoms: _11  and  _15
REMARK    8  A    between atoms: _18  and  _20
REMARK    9  A    between atoms: _20  and  _21
REMARK   10  A    between atoms: _20  and  _23
REMARK   11  A    between atoms: _23  and  _24
REMARK   12  A    between atoms: _27  and  _29
REMARK   13  A    between atoms: _29  and  _30
REMARK   14  A    between atoms: _29  and  _32
REMARK   15  A    between atoms: _32  and  _33
REMARK   16  A    between atoms: _36  and  _38
REMARK   17  A    between atoms: _38  and  _39
REMARK   18  A    between atoms: _38  and  _41
REMARK   19  A    between atoms: _41  and  _42
REMARK   20  A    between atoms: _45  and  _47
REMARK   21  A    between atoms: _47  and  _48
REMARK   22  A    between atoms: _47  and  _50
REMARK   23  A    between atoms: _50  and  _51
REMARK   24  A    between atoms: _54  and  _56
REMARK   25  A    between atoms: _56  and  _57
REMARK   26  A    between atoms: _59  and  _61
REMARK   27  A    between atoms: _61  and  _62
REMARK   28  A    between atoms: _65  and  _67
REMARK   29  A    between atoms: _67  and  _68
REMARK   30  A    between atoms: _67  and  _70
REMARK   31  A    between atoms: _70  and  _71
REMARK   32  A    between atoms: _74  and  _76
REMARK   33  A    between atoms: _76  and  _77
REMARK   34  A    between atoms: _76  and  _79
REMARK   35  A    between atoms: _79  and  _80
REMARK   36  A    between atoms: _83  and  _85
REMARK   37  A    between atoms: _85  and  _86
REMARK   38  A    between atoms: _85  and  _88
REMARK   39  A    between atoms: _88  and  _89
REMARK   40  A    between atoms: _92  and  _94
REMARK   41  A    between atoms: _94  and  _95
REMARK   42  A    between atoms: _94  and  _97
REMARK   43  A    between atoms: _100  and  _102
REMARK   44  A    between atoms: _102  and  _103
REMARK   45  A    between atoms: _102  and  _105
REMARK   46  A    between atoms: _105  and  _106
REMARK   47  A    between atoms: _106  and  _107
REMARK   48  A    between atoms: _107  and  _108
REMARK   49  A    between atoms: _108  and  _109
REMARK   50  A    between atoms: _113  and  _115
REMARK   51  A    between atoms: _115  and  _116
REMARK   52  A    between atoms: _115  and  _118
REMARK   53  A    between atoms: _118  and  _119
REMARK   54  A    between atoms: _119  and  _120
REMARK   55  A    between atoms: _122  and  _124
REMARK   56  A    between atoms: _124  and  _125
REMARK   57  A    between atoms: _124  and  _127
REMARK   58  A    between atoms: _127  and  _128
REMARK   59  A    between atoms: _131  and  _133
REMARK   60  A    between atoms: _133  and  _134
REMARK   61  A    between atoms: _136  and  _138
REMARK   62  A    between atoms: _138  and  _139
REMARK   63  A    between atoms: _141  and  _143
REMARK   64  A    between atoms: _143  and  _144
REMARK   65  A    between atoms: _143  and  _146
REMARK   66  A    between atoms: _146  and  _147
REMARK   67  A    between atoms: _150  and  _152
REMARK   68  A    between atoms: _152  and  _153
REMARK   69  A    between atoms: _155  and  _157
REMARK   70  A    between atoms: _157  and  _158
REMARK   71  A    between atoms: _160  and  _162
REMARK   72  A    between atoms: _162  and  _163
REMARK   73  A    between atoms: _162  and  _165
REMARK   74  A    between atoms: _165  and  _166
REMARK   75  A    between atoms: _172  and  _174
REMARK   76  A    between atoms: _174  and  _175
REMARK   77  A    between atoms: _174  and  _177
REMARK   78  A    between atoms: _177  and  _178
REMARK   79  A    between atoms: _181  and  _183
REMARK   80  A    between atoms: _183  and  _184
REMARK   81  A    between atoms: _183  and  _186
REMARK   82  A    between atoms: _189  and  _191
REMARK   83  A    between atoms: _191  and  _192
REMARK   84  A    between atoms: _191  and  _194
REMARK   85  A    between atoms: _194  and  _195
REMARK   86  A    between atoms: _198  and  _200
REMARK   87  A    between atoms: _200  and  _201
REMARK   88  A    between atoms: _200  and  _203
REMARK   89  A    between atoms: _203  and  _204
REMARK   90  A    between atoms: _208  and  _209
REMARK   91  A    between atoms: _214  and  _216
REMARK   92  A    between atoms: _216  and  _217
REMARK   93  A    between atoms: _216  and  _219
REMARK   94  A    between atoms: _222  and  _224
REMARK   95  A    between atoms: _224  and  _225
REMARK   96  A    between atoms: _224  and  _227
REMARK   97  A    between atoms: _227  and  _228
REMARK   98  A    between atoms: _233  and  _235
REMARK   99  A    between atoms: _235  and  _236
REMARK  100  A    between atoms: _235  and  _238
REMARK  101  A    between atoms: _238  and  _239
REMARK  102  A    between atoms: _242  and  _244
REMARK  103  A    between atoms: _244  and  _245
REMARK  104  A    between atoms: _244  and  _247
REMARK  105  A    between atoms: _247  and  _248
REMARK  106  A    between atoms: _251  and  _253
REMARK  107  A    between atoms: _253  and  _254
REMARK  108  A    between atoms: _256  and  _258
REMARK  109  A    between atoms: _258  and  _259
REMARK  110  A    between atoms: _258  and  _261
REMARK  111  A    between atoms: _261  and  _262
REMARK  112  A    between atoms: _262  and  _263
REMARK  113  A    between atoms: _263  and  _264
REMARK  114  A    between atoms: _273  and  _275
REMARK  115  A    between atoms: _275  and  _276
REMARK  116  A    between atoms: _275  and  _278
REMARK  117  A    between atoms: _278  and  _279
REMARK  118  A    between atoms: _284  and  _286
REMARK  119  A    between atoms: _286  and  _287
REMARK  120  A    between atoms: _286  and  _289
REMARK  121  A    between atoms: _289  and  _290
REMARK  122  A    between atoms: _290  and  _291
REMARK  123  A    between atoms: _291  and  _292
REMARK  124  A    between atoms: _301  and  _303
REMARK  125  A    between atoms: _303  and  _304
REMARK  126  A    between atoms: _303  and  _306
REMARK  127  A    between atoms: _306  and  _307
REMARK  128  A    between atoms: _310  and  _312
REMARK  129  A    between atoms: _312  and  _313
REMARK  130  A    between atoms: _312  and  _315
REMARK  131  A    between atoms: _315  and  _316
REMARK  132  A    between atoms: _319  and  _321
REMARK  133  A    between atoms: _321  and  _322
REMARK  134  A    between atoms: _321  and  _324
REMARK  135  A    between atoms: _324  and  _325
REMARK  136  A    between atoms: _328  and  _330
REMARK  137  A    between atoms: _330  and  _331
REMARK  138  A    between atoms: _330  and  _333
REMARK  139  A    between atoms: _333  and  _334
REMARK  140  A    between atoms: _337  and  _339
REMARK  141  A    between atoms: _339  and  _340
REMARK  142  A    between atoms: _342  and  _344
REMARK  143  A    between atoms: _344  and  _345
REMARK  144  A    between atoms: _348  and  _350
REMARK  145  A    between atoms: _350  and  _351
REMARK  146  A    between atoms: _350  and  _353
REMARK  147  A    between atoms: _353  and  _354
REMARK  148  A    between atoms: _357  and  _359
REMARK  149  A    between atoms: _359  and  _360
REMARK  150  A    between atoms: _359  and  _362
REMARK  151  A    between atoms: _362  and  _363
REMARK  152  A    between atoms: _366  and  _368
REMARK  153  A    between atoms: _368  and  _369
REMARK  154  A    between atoms: _368  and  _371
REMARK  155  A    between atoms: _371  and  _372
REMARK  156  A    between atoms: _375  and  _377
REMARK  157  A    between atoms: _377  and  _378
REMARK  158  A    between atoms: _377  and  _380
REMARK  159  A    between atoms: _383  and  _385
REMARK  160  A    between atoms: _385  and  _386
REMARK  161  A    between atoms: _385  and  _388
REMARK  162  A    between atoms: _388  and  _389
REMARK  163  A    between atoms: _389  and  _390
REMARK  164  A    between atoms: _390  and  _391
REMARK  165  A    between atoms: _391  and  _392
REMARK  166  A    between atoms: _396  and  _398
REMARK  167  A    between atoms: _398  and  _399
REMARK  168  A    between atoms: _398  and  _401
REMARK  169  A    between atoms: _401  and  _402
REMARK  170  A    between atoms: _402  and  _403
REMARK  171  A    between atoms: _405  and  _407
REMARK  172  A    between atoms: _407  and  _408
REMARK  173  A    between atoms: _407  and  _410
REMARK  174  A    between atoms: _410  and  _411
REMARK  175  A    between atoms: _414  and  _416
REMARK  176  A    between atoms: _416  and  _417
REMARK  177  A    between atoms: _419  and  _421
REMARK  178  A    between atoms: _421  and  _422
REMARK  179  A    between atoms: _424  and  _426
REMARK  180  A    between atoms: _426  and  _427
REMARK  181  A    between atoms: _426  and  _429
REMARK  182  A    between atoms: _429  and  _430
REMARK  183  A    between atoms: _433  and  _435
REMARK  184  A    between atoms: _435  and  _436
REMARK  185  A    between atoms: _438  and  _440
REMARK  186  A    between atoms: _440  and  _441
REMARK  187  A    between atoms: _443  and  _445
REMARK  188  A    between atoms: _445  and  _446
REMARK  189  A    between atoms: _445  and  _448
REMARK  190  A    between atoms: _448  and  _449
REMARK  191  A    between atoms: _455  and  _457
REMARK  192  A    between atoms: _457  and  _458
REMARK  193  A    between atoms: _457  and  _460
REMARK  194  A    between atoms: _460  and  _461
REMARK  195  A    between atoms: _464  and  _466
REMARK  196  A    between atoms: _466  and  _467
REMARK  197  A    between atoms: _466  and  _469
REMARK  198  A    between atoms: _472  and  _474
REMARK  199  A    between atoms: _474  and  _475
REMARK  200  A    between atoms: _474  and  _477
REMARK  201  A    between atoms: _477  and  _478
REMARK  202  A    between atoms: _481  and  _483
REMARK  203  A    between atoms: _483  and  _484
REMARK  204  A    between atoms: _483  and  _486
REMARK  205  A    between atoms: _486  and  _487
REMARK  206  A    between atoms: _491  and  _492
REMARK  207  A    between atoms: _497  and  _499
REMARK  208  A    between atoms: _499  and  _500
REMARK  209  A    between atoms: _499  and  _502
REMARK  210  A    between atoms: _505  and  _507
REMARK  211  A    between atoms: _507  and  _508
REMARK  212  A    between atoms: _507  and  _510
REMARK  213  A    between atoms: _510  and  _511
REMARK  214  A    between atoms: _516  and  _518
REMARK  215  A    between atoms: _518  and  _519
REMARK  216  A    between atoms: _518  and  _521
REMARK  217  A    between atoms: _521  and  _522
REMARK  218  A    between atoms: _525  and  _527
REMARK  219  A    between atoms: _527  and  _528
REMARK  220  A    between atoms: _527  and  _530
REMARK  221  A    between atoms: _530  and  _531
REMARK  222  A    between atoms: _534  and  _536
REMARK  223  A    between atoms: _536  and  _537
REMARK  224  A    between atoms: _539  and  _541
REMARK  225  A    between atoms: _541  and  _542
REMARK  226  A    between atoms: _541  and  _544
REMARK  227  A    between atoms: _544  and  _545
REMARK  228  A    between atoms: _545  and  _546
REMARK  229  A    between atoms: _546  and  _547
REMARK  230  A    between atoms: _556  and  _558
REMARK  231  A    between atoms: _558  and  _559
REMARK  232  A    between atoms: _558  and  _561
REMARK  233  A    between atoms: _561  and  _562
REMARK                            x       y       z     vdW  Elec       q    Type
REMARK                         _______ _______ _______ _____ _____    ______ ____
ROOT
ATOM      1  O   HOH     1       8.778  22.032  16.650  0.00  0.00    +0.000 OA
ENDROOT
TORSDOF 0
REMARK  Name = ../refined-set-2016/2z4o/2z4o_pocket.pdb
REMARK  233 active torsions:
REMARK  status: ('A' for Active; 'I' for Inactive)
REMARK    1  A    between atoms: _1  and  _3
REMARK    2  A    between atoms: _3  and  _4
REMARK    3  A    between atoms: _3  and  _6
REMARK    4  A    between atoms: _6  and  _7
REMARK    5  A    between atoms: _7  and  _8
REMARK    6  A    between atoms: _8  and  _9
REMARK    7  A    between atoms: _11  and  _15
REMARK    8  A    between atoms: _18  and  _20
REMARK    9  A    between atoms: _20  and  _21
REMARK   10  A    between atoms: _20  and  _23
REMARK   11  A    between atoms: _23  and  _24
REMARK   12  A    between atoms: _27  and  _29
REMARK   13  A    between atoms: _29  and  _30
REMARK   14  A    between atoms: _29  and  _32
REMARK   15  A    between atoms: _32  and  _33
REMARK   16  A    between atoms: _36  and  _38
REMARK   17  A    between atoms: _38  and  _39
REMARK   18  A    between atoms: _38  and  _41
REMARK   19  A    between atoms: _41  and  _42
REMARK   20  A    between atoms: _45  and  _47
REMARK   21  A    between atoms: _47  and  _48
REMARK   22  A    between atoms: _47  and  _50
REMARK   23  A    between atoms: _50  and  _51
REMARK   24  A    between atoms: _54  and  _56
REMARK   25  A    between atoms: _56  and  _57
REMARK   26  A    between atoms: _59  and  _61
REMARK   27  A    between atoms: _61  and  _62
REMARK   28  A    between atoms: _65  and  _67
REMARK   29  A    between atoms: _67  and  _68
REMARK   30  A    between atoms: _67  and  _70
REMARK   31  A    between atoms: _70  and  _71
REMARK   32  A    between atoms: _74  and  _76
REMARK   33  A    between atoms: _76  and  _77
REMARK   34  A    between atoms: _76  and  _79
REMARK   35  A    between atoms: _79  and  _80
REMARK   36  A    between atoms: _83  and  _85
REMARK   37  A    between atoms: _85  and  _86
REMARK   38  A    between atoms: _85  and  _88
REMARK   39  A    between atoms: _88  and  _89
REMARK   40  A    between atoms: _92  and  _94
REMARK   41  A    between atoms: _94  and  _95
REMARK   42  A    between atoms: _94  and  _97
REMARK   43  A    between atoms: _100  and  _102
REMARK   44  A    between atoms: _102  and  _103
REMARK   45  A    between atoms: _102  and  _105
REMARK   46  A    between atoms: _105  and  _106
REMARK   47  A    between atoms: _106  and  _107
REMARK   48  A    between atoms: _107  and  _108
REMARK   49  A    between atoms: _108  and  _109
REMARK   50  A    between atoms: _113  and  _115
REMARK   51  A    between atoms: _115  and  _116
REMARK   52  A    between atoms: _115  and  _118
REMARK   53  A    between atoms: _118  and  _119
REMARK   54  A    between atoms: _119  and  _120
REMARK   55  A    between atoms: _122  and  _124
REMARK   56  A    between atoms: _124  and  _125
REMARK   57  A    between atoms: _124  and  _127
REMARK   58  A    between atoms: _127  and  _128
REMARK   59  A    between atoms: _131  and  _133
REMARK   60  A    between atoms: _133  and  _134
REMARK   61  A    between atoms: _136  and  _138
REMARK   62  A    between atoms: _138  and  _139
REMARK   63  A    between atoms: _141  and  _143
REMARK   64  A    between atoms: _143  and  _144
REMARK   65  A    between atoms: _143  and  _146
REMARK   66  A    between atoms: _146  and  _147
REMARK   67  A    between atoms: _150  and  _152
REMARK   68  A    between atoms: _152  and  _153
REMARK   69  A    between atoms: _155  and  _157
REMARK   70  A    between atoms: _157  and  _158
REMARK   71  A    between atoms: _160  and  _162
REMARK   72  A    between atoms: _162  and  _163
REMARK   73  A    between atoms: _162  and  _165
REMARK   74  A    between atoms: _165  and  _166
REMARK   75  A    between atoms: _172  and  _174
REMARK   76  A    between atoms: _174  and  _175
REMARK   77  A    between atoms: _174  and  _177
REMARK   78  A    between atoms: _177  and  _178
REMARK   79  A    between atoms: _181  and  _183
REMARK   80  A    between atoms: _183  and  _184
REMARK   81  A    between atoms: _183  and  _186
REMARK   82  A    between atoms: _189  and  _191
REMARK   83  A    between atoms: _191  and  _192
REMARK   84  A    between atoms: _191  and  _194
REMARK   85  A    between atoms: _194  and  _195
REMARK   86  A    between atoms: _198  and  _200
REMARK   87  A    between atoms: _200  and  _201
REMARK   88  A    between atoms: _200  and  _203
REMARK   89  A    between atoms: _203  and  _204
REMARK   90  A    between atoms: _208  and  _209
REMARK   91  A    between atoms: _214  and  _216
REMARK   92  A    between atoms: _216  and  _217
REMARK   93  A    between atoms: _216  and  _219
REMARK   94  A    between atoms: _222  and  _224
REMARK   95  A    between atoms: _224  and  _225
REMARK   96  A    between atoms: _224  and  _227
REMARK   97  A    between atoms: _227  and  _228
REMARK   98  A    between atoms: _233  and  _235
REMARK   99  A    between atoms: _235  and  _236
REMARK  100  A    between atoms: _235  and  _238
REMARK  101  A    between atoms: _238  and  _239
REMARK  102  A    between atoms: _242  and  _244
REMARK  103  A    between atoms: _244  and  _245
REMARK  104  A    between atoms: _244  and  _247
REMARK  105  A    between atoms: _247  and  _248
REMARK  106  A    between atoms: _251  and  _253
REMARK  107  A    between atoms: _253  and  _254
REMARK  108  A    between atoms: _256  and  _258
REMARK  109  A    between atoms: _258  and  _259
REMARK  110  A    between atoms: _258  and  _261
REMARK  111  A    between atoms: _261  and  _262
REMARK  112  A    between atoms: _262  and  _263
REMARK  113  A    between atoms: _263  and  _264
REMARK  114  A    between atoms: _273  and  _275
REMARK  115  A    between atoms: _275  and  _276
REMARK  116  A    between atoms: _275  and  _278
REMARK  117  A    between atoms: _278  and  _279
REMARK  118  A    between atoms: _284  and  _286
REMARK  119  A    between atoms: _286  and  _287
REMARK  120  A    between atoms: _286  and  _289
REMARK  121  A    between atoms: _289  and  _290
REMARK  122  A    between atoms: _290  and  _291
REMARK  123  A    between atoms: _291  and  _292
REMARK  124  A    between atoms: _301  and  _303
REMARK  125  A    between atoms: _303  and  _304
REMARK  126  A    between atoms: _303  and  _306
REMARK  127  A    between atoms: _306  and  _307
REMARK  128  A    between atoms: _310  and  _312
REMARK  129  A    between atoms: _312  and  _313
REMARK  130  A    between atoms: _312  and  _315
REMARK  131  A    between atoms: _315  and  _316
REMARK  132  A    between atoms: _319  and  _321
REMARK  133  A    between atoms: _321  and  _322
REMARK  134  A    between atoms: _321  and  _324
REMARK  135  A    between atoms: _324  and  _325
REMARK  136  A    between atoms: _328  and  _330
REMARK  137  A    between atoms: _330  and  _331
REMARK  138  A    between atoms: _330  and  _333
REMARK  139  A    between atoms: _333  and  _334
REMARK  140  A    between atoms: _337  and  _339
REMARK  141  A    between atoms: _339  and  _340
REMARK  142  A    between atoms: _342  and  _344
REMARK  143  A    between atoms: _344  and  _345
REMARK  144  A    between atoms: _348  and  _350
REMARK  145  A    between atoms: _350  and  _351
REMARK  146  A    between atoms: _350  and  _353
REMARK  147  A    between atoms: _353  and  _354
REMARK  148  A    between atoms: _357  and  _359
REMARK  149  A    between atoms: _359  and  _360
REMARK  150  A    between atoms: _359  and  _362
REMARK  151  A    between atoms: _362  and  _363
REMARK  152  A    between atoms: _366  and  _368
REMARK  153  A    between atoms: _368  and  _369
REMARK  154  A    between atoms: _368  and  _371
REMARK  155  A    between atoms: _371  and  _372
REMARK  156  A    between atoms: _375  and  _377
REMARK  157  A    between atoms: _377  and  _378
REMARK  158  A    between atoms: _377  and  _380
REMARK  159  A    between atoms: _383  and  _385
REMARK  160  A    between atoms: _385  and  _386
REMARK  161  A    between atoms: _385  and  _388
REMARK  162  A    between atoms: _388  and  _389
REMARK  163  A    between atoms: _389  and  _390
REMARK  164  A    between atoms: _390  and  _391
REMARK  165  A    between atoms: _391  and  _392
REMARK  166  A    between atoms: _396  and  _398
REMARK  167  A    between atoms: _398  and  _399
REMARK  168  A    between atoms: _398  and  _401
REMARK  169  A    between atoms: _401  and  _402
REMARK  170  A    between atoms: _402  and  _403
REMARK  171  A    between atoms: _405  and  _407
REMARK  172  A    between atoms: _407  and  _408
REMARK  173  A    between atoms: _407  and  _410
REMARK  174  A    between atoms: _410  and  _411
REMARK  175  A    between atoms: _414  and  _416
REMARK  176  A    between atoms: _416  and  _417
REMARK  177  A    between atoms: _419  and  _421
REMARK  178  A    between atoms: _421  and  _422
REMARK  179  A    between atoms: _424  and  _426
REMARK  180  A    between atoms: _426  and  _427
REMARK  181  A    between atoms: _426  and  _429
REMARK  182  A    between atoms: _429  and  _430
REMARK  183  A    between atoms: _433  and  _435
REMARK  184  A    between atoms: _435  and  _436
REMARK  185  A    between atoms: _438  and  _440
REMARK  186  A    between atoms: _440  and  _441
REMARK  187  A    between atoms: _443  and  _445
REMARK  188  A    between atoms: _445  and  _446
REMARK  189  A    between atoms: _445  and  _448
REMARK  190  A    between atoms: _448  and  _449
REMARK  191  A    between atoms: _455  and  _457
REMARK  192  A    between atoms: _457  and  _458
REMARK  193  A    between atoms: _457  and  _460
REMARK  194  A    between atoms: _460  and  _461
REMARK  195  A    between atoms: _464  and  _466
REMARK  196  A    between atoms: _466  and  _467
REMARK  197  A    between atoms: _466  and  _469
REMARK  198  A    between atoms: _472  and  _474
REMARK  199  A    between atoms: _474  and  _475
REMARK  200  A    between atoms: _474  and  _477
REMARK  201  A    between atoms: _477  and  _478
REMARK  202  A    between atoms: _481  and  _483
REMARK  203  A    between atoms: _483  and  _484
REMARK  204  A    between atoms: _483  and  _486
REMARK  205  A    between atoms: _486  and  _487
REMARK  206  A    between atoms: _491  and  _492
REMARK  207  A    between atoms: _497  and  _499
REMARK  208  A    between atoms: _499  and  _500
REMARK  209  A    between atoms: _499  and  _502
REMARK  210  A    between atoms: _505  and  _507
REMARK  211  A    between atoms: _507  and  _508
REMARK  212  A    between atoms: _507  and  _510
REMARK  213  A    between atoms: _510  and  _511
REMARK  214  A    between atoms: _516  and  _518
REMARK  215  A    between atoms: _518  and  _519
REMARK  216  A    between atoms: _518  and  _521
REMARK  217  A    between atoms: _521  and  _522
REMARK  218  A    between atoms: _525  and  _527
REMARK  219  A    between atoms: _527  and  _528
REMARK  220  A    between atoms: _527  and  _530
REMARK  221  A    between atoms: _530  and  _531
REMARK  222  A    between atoms: _534  and  _536
REMARK  223  A    between atoms: _536  and  _537
REMARK  224  A    between atoms: _539  and  _541
REMARK  225  A    between atoms: _541  and  _542
REMARK  226  A    between atoms: _541  and  _544
REMARK  227  A    between atoms: _544  and  _545
REMARK  228  A    between atoms: _545  and  _546
REMARK  229  A    between atoms: _546  and  _547
REMARK  230  A    between atoms: _556  and  _558
REMARK  231  A    between atoms: _558  and  _559
REMARK  232  A    between atoms: _558  and  _561
REMARK  233  A    between atoms: _561  and  _562
REMARK                            x       y       z     vdW  Elec       q    Type
REMARK                         _______ _______ _______ _____ _____    ______ ____
ROOT
ATOM      1  O   HOH     1      18.164  20.645  16.546  0.00  0.00    +0.000 OA
ENDROOT
TORSDOF 0
REMARK  Name = ../refined-set-2016/2z4o/2z4o_pocket.pdb
REMARK  233 active torsions:
REMARK  status: ('A' for Active; 'I' for Inactive)
REMARK    1  A    between atoms: _1  and  _3
REMARK    2  A    between atoms: _3  and  _4
REMARK    3  A    between atoms: _3  and  _6
REMARK    4  A    between atoms: _6  and  _7
REMARK    5  A    between atoms: _7  and  _8
REMARK    6  A    between atoms: _8  and  _9
REMARK    7  A    between atoms: _11  and  _15
REMARK    8  A    between atoms: _18  and  _20
REMARK    9  A    between atoms: _20  and  _21
REMARK   10  A    between atoms: _20  and  _23
REMARK   11  A    between atoms: _23  and  _24
REMARK   12  A    between atoms: _27  and  _29
REMARK   13  A    between atoms: _29  and  _30
REMARK   14  A    between atoms: _29  and  _32
REMARK   15  A    between atoms: _32  and  _33
REMARK   16  A    between atoms: _36  and  _38
REMARK   17  A    between atoms: _38  and  _39
REMARK   18  A    between atoms: _38  and  _41
REMARK   19  A    between atoms: _41  and  _42
REMARK   20  A    between atoms: _45  and  _47
REMARK   21  A    between atoms: _47  and  _48
REMARK   22  A    between atoms: _47  and  _50
REMARK   23  A    between atoms: _50  and  _51
REMARK   24  A    between atoms: _54  and  _56
REMARK   25  A    between atoms: _56  and  _57
REMARK   26  A    between atoms: _59  and  _61
REMARK   27  A    between atoms: _61  and  _62
REMARK   28  A    between atoms: _65  and  _67
REMARK   29  A    between atoms: _67  and  _68
REMARK   30  A    between atoms: _67  and  _70
REMARK   31  A    between atoms: _70  and  _71
REMARK   32  A    between atoms: _74  and  _76
REMARK   33  A    between atoms: _76  and  _77
REMARK   34  A    between atoms: _76  and  _79
REMARK   35  A    between atoms: _79  and  _80
REMARK   36  A    between atoms: _83  and  _85
REMARK   37  A    between atoms: _85  and  _86
REMARK   38  A    between atoms: _85  and  _88
REMARK   39  A    between atoms: _88  and  _89
REMARK   40  A    between atoms: _92  and  _94
REMARK   41  A    between atoms: _94  and  _95
REMARK   42  A    between atoms: _94  and  _97
REMARK   43  A    between atoms: _100  and  _102
REMARK   44  A    between atoms: _102  and  _103
REMARK   45  A    between atoms: _102  and  _105
REMARK   46  A    between atoms: _105  and  _106
REMARK   47  A    between atoms: _106  and  _107
REMARK   48  A    between atoms: _107  and  _108
REMARK   49  A    between atoms: _108  and  _109
REMARK   50  A    between atoms: _113  and  _115
REMARK   51  A    between atoms: _115  and  _116
REMARK   52  A    between atoms: _115  and  _118
REMARK   53  A    between atoms: _118  and  _119
REMARK   54  A    between atoms: _119  and  _120
REMARK   55  A    between atoms: _122  and  _124
REMARK   56  A    between atoms: _124  and  _125
REMARK   57  A    between atoms: _124  and  _127
REMARK   58  A    between atoms: _127  and  _128
REMARK   59  A    between atoms: _131  and  _133
REMARK   60  A    between atoms: _133  and  _134
REMARK   61  A    between atoms: _136  and  _138
REMARK   62  A    between atoms: _138  and  _139
REMARK   63  A    between atoms: _141  and  _143
REMARK   64  A    between atoms: _143  and  _144
REMARK   65  A    between atoms: _143  and  _146
REMARK   66  A    between atoms: _146  and  _147
REMARK   67  A    between atoms: _150  and  _152
REMARK   68  A    between atoms: _152  and  _153
REMARK   69  A    between atoms: _155  and  _157
REMARK   70  A    between atoms: _157  and  _158
REMARK   71  A    between atoms: _160  and  _162
REMARK   72  A    between atoms: _162  and  _163
REMARK   73  A    between atoms: _162  and  _165
REMARK   74  A    between atoms: _165  and  _166
REMARK   75  A    between atoms: _172  and  _174
REMARK   76  A    between atoms: _174  and  _175
REMARK   77  A    between atoms: _174  and  _177
REMARK   78  A    between atoms: _177  and  _178
REMARK   79  A    between atoms: _181  and  _183
REMARK   80  A    between atoms: _183  and  _184
REMARK   81  A    between atoms: _183  and  _186
REMARK   82  A    between atoms: _189  and  _191
REMARK   83  A    between atoms: _191  and  _192
REMARK   84  A    between atoms: _191  and  _194
REMARK   85  A    between atoms: _194  and  _195
REMARK   86  A    between atoms: _198  and  _200
REMARK   87  A    between atoms: _200  and  _201
REMARK   88  A    between atoms: _200  and  _203
REMARK   89  A    between atoms: _203  and  _204
REMARK   90  A    between atoms: _208  and  _209
REMARK   91  A    between atoms: _214  and  _216
REMARK   92  A    between atoms: _216  and  _217
REMARK   93  A    between atoms: _216  and  _219
REMARK   94  A    between atoms: _222  and  _224
REMARK   95  A    between atoms: _224  and  _225
REMARK   96  A    between atoms: _224  and  _227
REMARK   97  A    between atoms: _227  and  _228
REMARK   98  A    between atoms: _233  and  _235
REMARK   99  A    between atoms: _235  and  _236
REMARK  100  A    between atoms: _235  and  _238
REMARK  101  A    between atoms: _238  and  _239
REMARK  102  A    between atoms: _242  and  _244
REMARK  103  A    between atoms: _244  and  _245
REMARK  104  A    between atoms: _244  and  _247
REMARK  105  A    between atoms: _247  and  _248
REMARK  106  A    between atoms: _251  and  _253
REMARK  107  A    between atoms: _253  and  _254
REMARK  108  A    between atoms: _256  and  _258
REMARK  109  A    between atoms: _258  and  _259
REMARK  110  A    between atoms: _258  and  _261
REMARK  111  A    between atoms: _261  and  _262
REMARK  112  A    between atoms: _262  and  _263
REMARK  113  A    between atoms: _263  and  _264
REMARK  114  A    between atoms: _273  and  _275
REMARK  115  A    between atoms: _275  and  _276
REMARK  116  A    between atoms: _275  and  _278
REMARK  117  A    between atoms: _278  and  _279
REMARK  118  A    between atoms: _284  and  _286
REMARK  119  A    between atoms: _286  and  _287
REMARK  120  A    between atoms: _286  and  _289
REMARK  121  A    between atoms: _289  and  _290
REMARK  122  A    between atoms: _290  and  _291
REMARK  123  A    between atoms: _291  and  _292
REMARK  124  A    between atoms: _301  and  _303
REMARK  125  A    between atoms: _303  and  _304
REMARK  126  A    between atoms: _303  and  _306
REMARK  127  A    between atoms: _306  and  _307
REMARK  128  A    between atoms: _310  and  _312
REMARK  129  A    between atoms: _312  and  _313
REMARK  130  A    between atoms: _312  and  _315
REMARK  131  A    between atoms: _315  and  _316
REMARK  132  A    between atoms: _319  and  _321
REMARK  133  A    between atoms: _321  and  _322
REMARK  134  A    between atoms: _321  and  _324
REMARK  135  A    between atoms: _324  and  _325
REMARK  136  A    between atoms: _328  and  _330
REMARK  137  A    between atoms: _330  and  _331
REMARK  138  A    between atoms: _330  and  _333
REMARK  139  A    between atoms: _333  and  _334
REMARK  140  A    between atoms: _337  and  _339
REMARK  141  A    between atoms: _339  and  _340
REMARK  142  A    between atoms: _342  and  _344
REMARK  143  A    between atoms: _344  and  _345
REMARK  144  A    between atoms: _348  and  _350
REMARK  145  A    between atoms: _350  and  _351
REMARK  146  A    between atoms: _350  and  _353
REMARK  147  A    between atoms: _353  and  _354
REMARK  148  A    between atoms: _357  and  _359
REMARK  149  A    between atoms: _359  and  _360
REMARK  150  A    between atoms: _359  and  _362
REMARK  151  A    between atoms: _362  and  _363
REMARK  152  A    between atoms: _366  and  _368
REMARK  153  A    between atoms: _368  and  _369
REMARK  154  A    between atoms: _368  and  _371
REMARK  155  A    between atoms: _371  and  _372
REMARK  156  A    between atoms: _375  and  _377
REMARK  157  A    between atoms: _377  and  _378
REMARK  158  A    between atoms: _377  and  _380
REMARK  159  A    between atoms: _383  and  _385
REMARK  160  A    between atoms: _385  and  _386
REMARK  161  A    between atoms: _385  and  _388
REMARK  162  A    between atoms: _388  and  _389
REMARK  163  A    between atoms: _389  and  _390
REMARK  164  A    between atoms: _390  and  _391
REMARK  165  A    between atoms: _391  and  _392
REMARK  166  A    between atoms: _396  and  _398
REMARK  167  A    between atoms: _398  and  _399
REMARK  168  A    between atoms: _398  and  _401
REMARK  169  A    between atoms: _401  and  _402
REMARK  170  A    between atoms: _402  and  _403
REMARK  171  A    between atoms: _405  and  _407
REMARK  172  A    between atoms: _407  and  _408
REMARK  173  A    between atoms: _407  and  _410
REMARK  174  A    between atoms: _410  and  _411
REMARK  175  A    between atoms: _414  and  _416
REMARK  176  A    between atoms: _416  and  _417
REMARK  177  A    between atoms: _419  and  _421
REMARK  178  A    between atoms: _421  and  _422
REMARK  179  A    between atoms: _424  and  _426
REMARK  180  A    between atoms: _426  and  _427
REMARK  181  A    between atoms: _426  and  _429
REMARK  182  A    between atoms: _429  and  _430
REMARK  183  A    between atoms: _433  and  _435
REMARK  184  A    between atoms: _435  and  _436
REMARK  185  A    between atoms: _438  and  _440
REMARK  186  A    between atoms: _440  and  _441
REMARK  187  A    between atoms: _443  and  _445
REMARK  188  A    between atoms: _445  and  _446
REMARK  189  A    between atoms: _445  and  _448
REMARK  190  A    between atoms: _448  and  _449
REMARK  191  A    between atoms: _455  and  _457
REMARK  192  A    between atoms: _457  and  _458
REMARK  193  A    between atoms: _457  and  _460
REMARK  194  A    between atoms: _460  and  _461
REMARK  195  A    between atoms: _464  and  _466
REMARK  196  A    between atoms: _466  and  _467
REMARK  197  A    between atoms: _466  and  _469
REMARK  198  A    between atoms: _472  and  _474
REMARK  199  A    between atoms: _474  and  _475
REMARK  200  A    between atoms: _474  and  _477
REMARK  201  A    between atoms: _477  and  _478
REMARK  202  A    between atoms: _481  and  _483
REMARK  203  A    between atoms: _483  and  _484
REMARK  204  A    between atoms: _483  and  _486
REMARK  205  A    between atoms: _486  and  _487
REMARK  206  A    between atoms: _491  and  _492
REMARK  207  A    between atoms: _497  and  _499
REMARK  208  A    between atoms: _499  and  _500
REMARK  209  A    between atoms: _499  and  _502
REMARK  210  A    between atoms: _505  and  _507
REMARK  211  A    between atoms: _507  and  _508
REMARK  212  A    between atoms: _507  and  _510
REMARK  213  A    between atoms: _510  and  _511
REMARK  214  A    between atoms: _516  and  _518
REMARK  215  A    between atoms: _518  and  _519
REMARK  216  A    between atoms: _518  and  _521
REMARK  217  A    between atoms: _521  and  _522
REMARK  218  A    between atoms: _525  and  _527
REMARK  219  A    between atoms: _527  and  _528
REMARK  220  A    between atoms: _527  and  _530
REMARK  221  A    between atoms: _530  and  _531
REMARK  222  A    between atoms: _534  and  _536
REMARK  223  A    between atoms: _536  and  _537
REMARK  224  A    between atoms: _539  and  _541
REMARK  225  A    between atoms: _541  and  _542
REMARK  226  A    between atoms: _541  and  _544
REMARK  227  A    between atoms: _544  and  _545
REMARK  228  A    between atoms: _545  and  _546
REMARK  229  A    between atoms: _546  and  _547
REMARK  230  A    between atoms: _556  and  _558
REMARK  231  A    between atoms: _558  and  _559
REMARK  232  A    between atoms: _558  and  _561
REMARK  233  A    between atoms: _561  and  _562
REMARK                            x       y       z     vdW  Elec       q    Type
REMARK                         _______ _______ _______ _____ _____    ______ ____
ROOT
ATOM      1  O   HOH     1      15.824  15.560  11.804  0.00  0.00    +0.000 OA
ENDROOT
TORSDOF 0
REMARK  Name = ../refined-set-2016/2z4o/2z4o_pocket.pdb
REMARK  233 active torsions:
REMARK  status: ('A' for Active; 'I' for Inactive)
REMARK    1  A    between atoms: _1  and  _3
REMARK    2  A    between atoms: _3  and  _4
REMARK    3  A    between atoms: _3  and  _6
REMARK    4  A    between atoms: _6  and  _7
REMARK    5  A    between atoms: _7  and  _8
REMARK    6  A    between atoms: _8  and  _9
REMARK    7  A    between atoms: _11  and  _15
REMARK    8  A    between atoms: _18  and  _20
REMARK    9  A    between atoms: _20  and  _21
REMARK   10  A    between atoms: _20  and  _23
REMARK   11  A    between atoms: _23  and  _24
REMARK   12  A    between atoms: _27  and  _29
REMARK   13  A    between atoms: _29  and  _30
REMARK   14  A    between atoms: _29  and  _32
REMARK   15  A    between atoms: _32  and  _33
REMARK   16  A    between atoms: _36  and  _38
REMARK   17  A    between atoms: _38  and  _39
REMARK   18  A    between atoms: _38  and  _41
REMARK   19  A    between atoms: _41  and  _42
REMARK   20  A    between atoms: _45  and  _47
REMARK   21  A    between atoms: _47  and  _48
REMARK   22  A    between atoms: _47  and  _50
REMARK   23  A    between atoms: _50  and  _51
REMARK   24  A    between atoms: _54  and  _56
REMARK   25  A    between atoms: _56  and  _57
REMARK   26  A    between atoms: _59  and  _61
REMARK   27  A    between atoms: _61  and  _62
REMARK   28  A    between atoms: _65  and  _67
REMARK   29  A    between atoms: _67  and  _68
REMARK   30  A    between atoms: _67  and  _70
REMARK   31  A    between atoms: _70  and  _71
REMARK   32  A    between atoms: _74  and  _76
REMARK   33  A    between atoms: _76  and  _77
REMARK   34  A    between atoms: _76  and  _79
REMARK   35  A    between atoms: _79  and  _80
REMARK   36  A    between atoms: _83  and  _85
REMARK   37  A    between atoms: _85  and  _86
REMARK   38  A    between atoms: _85  and  _88
REMARK   39  A    between atoms: _88  and  _89
REMARK   40  A    between atoms: _92  and  _94
REMARK   41  A    between atoms: _94  and  _95
REMARK   42  A    between atoms: _94  and  _97
REMARK   43  A    between atoms: _100  and  _102
REMARK   44  A    between atoms: _102  and  _103
REMARK   45  A    between atoms: _102  and  _105
REMARK   46  A    between atoms: _105  and  _106
REMARK   47  A    between atoms: _106  and  _107
REMARK   48  A    between atoms: _107  and  _108
REMARK   49  A    between atoms: _108  and  _109
REMARK   50  A    between atoms: _113  and  _115
REMARK   51  A    between atoms: _115  and  _116
REMARK   52  A    between atoms: _115  and  _118
REMARK   53  A    between atoms: _118  and  _119
REMARK   54  A    between atoms: _119  and  _120
REMARK   55  A    between atoms: _122  and  _124
REMARK   56  A    between atoms: _124  and  _125
REMARK   57  A    between atoms: _124  and  _127
REMARK   58  A    between atoms: _127  and  _128
REMARK   59  A    between atoms: _131  and  _133
REMARK   60  A    between atoms: _133  and  _134
REMARK   61  A    between atoms: _136  and  _138
REMARK   62  A    between atoms: _138  and  _139
REMARK   63  A    between atoms: _141  and  _143
REMARK   64  A    between atoms: _143  and  _144
REMARK   65  A    between atoms: _143  and  _146
REMARK   66  A    between atoms: _146  and  _147
REMARK   67  A    between atoms: _150  and  _152
REMARK   68  A    between atoms: _152  and  _153
REMARK   69  A    between atoms: _155  and  _157
REMARK   70  A    between atoms: _157  and  _158
REMARK   71  A    between atoms: _160  and  _162
REMARK   72  A    between atoms: _162  and  _163
REMARK   73  A    between atoms: _162  and  _165
REMARK   74  A    between atoms: _165  and  _166
REMARK   75  A    between atoms: _172  and  _174
REMARK   76  A    between atoms: _174  and  _175
REMARK   77  A    between atoms: _174  and  _177
REMARK   78  A    between atoms: _177  and  _178
REMARK   79  A    between atoms: _181  and  _183
REMARK   80  A    between atoms: _183  and  _184
REMARK   81  A    between atoms: _183  and  _186
REMARK   82  A    between atoms: _189  and  _191
REMARK   83  A    between atoms: _191  and  _192
REMARK   84  A    between atoms: _191  and  _194
REMARK   85  A    between atoms: _194  and  _195
REMARK   86  A    between atoms: _198  and  _200
REMARK   87  A    between atoms: _200  and  _201
REMARK   88  A    between atoms: _200  and  _203
REMARK   89  A    between atoms: _203  and  _204
REMARK   90  A    between atoms: _208  and  _209
REMARK   91  A    between atoms: _214  and  _216
REMARK   92  A    between atoms: _216  and  _217
REMARK   93  A    between atoms: _216  and  _219
REMARK   94  A    between atoms: _222  and  _224
REMARK   95  A    between atoms: _224  and  _225
REMARK   96  A    between atoms: _224  and  _227
REMARK   97  A    between atoms: _227  and  _228
REMARK   98  A    between atoms: _233  and  _235
REMARK   99  A    between atoms: _235  and  _236
REMARK  100  A    between atoms: _235  and  _238
REMARK  101  A    between atoms: _238  and  _239
REMARK  102  A    between atoms: _242  and  _244
REMARK  103  A    between atoms: _244  and  _245
REMARK  104  A    between atoms: _244  and  _247
REMARK  105  A    between atoms: _247  and  _248
REMARK  106  A    between atoms: _251  and  _253
REMARK  107  A    between atoms: _253  and  _254
REMARK  108  A    between atoms: _256  and  _258
REMARK  109  A    between atoms: _258  and  _259
REMARK  110  A    between atoms: _258  and  _261
REMARK  111  A    between atoms: _261  and  _262
REMARK  112  A    between atoms: _262  and  _263
REMARK  113  A    between atoms: _263  and  _264
REMARK  114  A    between atoms: _273  and  _275
REMARK  115  A    between atoms: _275  and  _276
REMARK  116  A    between atoms: _275  and  _278
REMARK  117  A    between atoms: _278  and  _279
REMARK  118  A    between atoms: _284  and  _286
REMARK  119  A    between atoms: _286  and  _287
REMARK  120  A    between atoms: _286  and  _289
REMARK  121  A    between atoms: _289  and  _290
REMARK  122  A    between atoms: _290  and  _291
REMARK  123  A    between atoms: _291  and  _292
REMARK  124  A    between atoms: _301  and  _303
REMARK  125  A    between atoms: _303  and  _304
REMARK  126  A    between atoms: _303  and  _306
REMARK  127  A    between atoms: _306  and  _307
REMARK  128  A    between atoms: _310  and  _312
REMARK  129  A    between atoms: _312  and  _313
REMARK  130  A    between atoms: _312  and  _315
REMARK  131  A    between atoms: _315  and  _316
REMARK  132  A    between atoms: _319  and  _321
REMARK  133  A    between atoms: _321  and  _322
REMARK  134  A    between atoms: _321  and  _324
REMARK  135  A    between atoms: _324  and  _325
REMARK  136  A    between atoms: _328  and  _330
REMARK  137  A    between atoms: _330  and  _331
REMARK  138  A    between atoms: _330  and  _333
REMARK  139  A    between atoms: _333  and  _334
REMARK  140  A    between atoms: _337  and  _339
REMARK  141  A    between atoms: _339  and  _340
REMARK  142  A    between atoms: _342  and  _344
REMARK  143  A    between atoms: _344  and  _345
REMARK  144  A    between atoms: _348  and  _350
REMARK  145  A    between atoms: _350  and  _351
REMARK  146  A    between atoms: _350  and  _353
REMARK  147  A    between atoms: _353  and  _354
REMARK  148  A    between atoms: _357  and  _359
REMARK  149  A    between atoms: _359  and  _360
REMARK  150  A    between atoms: _359  and  _362
REMARK  151  A    between atoms: _362  and  _363
REMARK  152  A    between atoms: _366  and  _368
REMARK  153  A    between atoms: _368  and  _369
REMARK  154  A    between atoms: _368  and  _371
REMARK  155  A    between atoms: _371  and  _372
REMARK  156  A    between atoms: _375  and  _377
REMARK  157  A    between atoms: _377  and  _378
REMARK  158  A    between atoms: _377  and  _380
REMARK  159  A    between atoms: _383  and  _385
REMARK  160  A    between atoms: _385  and  _386
REMARK  161  A    between atoms: _385  and  _388
REMARK  162  A    between atoms: _388  and  _389
REMARK  163  A    between atoms: _389  and  _390
REMARK  164  A    between atoms: _390  and  _391
REMARK  165  A    between atoms: _391  and  _392
REMARK  166  A    between atoms: _396  and  _398
REMARK  167  A    between atoms: _398  and  _399
REMARK  168  A    between atoms: _398  and  _401
REMARK  169  A    between atoms: _401  and  _402
REMARK  170  A    between atoms: _402  and  _403
REMARK  171  A    between atoms: _405  and  _407
REMARK  172  A    between atoms: _407  and  _408
REMARK  173  A    between atoms: _407  and  _410
REMARK  174  A    between atoms: _410  and  _411
REMARK  175  A    between atoms: _414  and  _416
REMARK  176  A    between atoms: _416  and  _417
REMARK  177  A    between atoms: _419  and  _421
REMARK  178  A    between atoms: _421  and  _422
REMARK  179  A    between atoms: _424  and  _426
REMARK  180  A    between atoms: _426  and  _427
REMARK  181  A    between atoms: _426  and  _429
REMARK  182  A    between atoms: _429  and  _430
REMARK  183  A    between atoms: _433  and  _435
REMARK  184  A    between atoms: _435  and  _436
REMARK  185  A    between atoms: _438  and  _440
REMARK  186  A    between atoms: _440  and  _441
REMARK  187  A    between atoms: _443  and  _445
REMARK  188  A    between atoms: _445  and  _446
REMARK  189  A    between atoms: _445  and  _448
REMARK  190  A    between atoms: _448  and  _449
REMARK  191  A    between atoms: _455  and  _457
REMARK  192  A    between atoms: _457  and  _458
REMARK  193  A    between atoms: _457  and  _460
REMARK  194  A    between atoms: _460  and  _461
REMARK  195  A    between atoms: _464  and  _466
REMARK  196  A    between atoms: _466  and  _467
REMARK  197  A    between atoms: _466  and  _469
REMARK  198  A    between atoms: _472  and  _474
REMARK  199  A    between atoms: _474  and  _475
REMARK  200  A    between atoms: _474  and  _477
REMARK  201  A    between atoms: _477  and  _478
REMARK  202  A    between atoms: _481  and  _483
REMARK  203  A    between atoms: _483  and  _484
REMARK  204  A    between atoms: _483  and  _486
REMARK  205  A    between atoms: _486  and  _487
REMARK  206  A    between atoms: _491  and  _492
REMARK  207  A    between atoms: _497  and  _499
REMARK  208  A    between atoms: _499  and  _500
REMARK  209  A    between atoms: _499  and  _502
REMARK  210  A    between atoms: _505  and  _507
REMARK  211  A    between atoms: _507  and  _508
REMARK  212  A    between atoms: _507  and  _510
REMARK  213  A    between atoms: _510  and  _511
REMARK  214  A    between atoms: _516  and  _518
REMARK  215  A    between atoms: _518  and  _519
REMARK  216  A    between atoms: _518  and  _521
REMARK  217  A    between atoms: _521  and  _522
REMARK  218  A    between atoms: _525  and  _527
REMARK  219  A    between atoms: _527  and  _528
REMARK  220  A    between atoms: _527  and  _530
REMARK  221  A    between atoms: _530  and  _531
REMARK  222  A    between atoms: _534  and  _536
REMARK  223  A    between atoms: _536  and  _537
REMARK  224  A    between atoms: _539  and  _541
REMARK  225  A    between atoms: _541  and  _542
REMARK  226  A    between atoms: _541  and  _544
REMARK  227  A    between atoms: _544  and  _545
REMARK  228  A    between atoms: _545  and  _546
REMARK  229  A    between atoms: _546  and  _547
REMARK  230  A    between atoms: _556  and  _558
REMARK  231  A    between atoms: _558  and  _559
REMARK  232  A    between atoms: _558  and  _561
REMARK  233  A    between atoms: _561  and  _562
REMARK                            x       y       z     vdW  Elec       q    Type
REMARK                         _______ _______ _______ _____ _____    ______ ____
ROOT
ATOM      1  O   HOH     1      11.006  14.883  16.507  0.00  0.00    +0.000 OA
ENDROOT
TORSDOF 0
REMARK  Name = ../refined-set-2016/2z4o/2z4o_pocket.pdb
REMARK  233 active torsions:
REMARK  status: ('A' for Active; 'I' for Inactive)
REMARK    1  A    between atoms: _1  and  _3
REMARK    2  A    between atoms: _3  and  _4
REMARK    3  A    between atoms: _3  and  _6
REMARK    4  A    between atoms: _6  and  _7
REMARK    5  A    between atoms: _7  and  _8
REMARK    6  A    between atoms: _8  and  _9
REMARK    7  A    between atoms: _11  and  _15
REMARK    8  A    between atoms: _18  and  _20
REMARK    9  A    between atoms: _20  and  _21
REMARK   10  A    between atoms: _20  and  _23
REMARK   11  A    between atoms: _23  and  _24
REMARK   12  A    between atoms: _27  and  _29
REMARK   13  A    between atoms: _29  and  _30
REMARK   14  A    between atoms: _29  and  _32
REMARK   15  A    between atoms: _32  and  _33
REMARK   16  A    between atoms: _36  and  _38
REMARK   17  A    between atoms: _38  and  _39
REMARK   18  A    between atoms: _38  and  _41
REMARK   19  A    between atoms: _41  and  _42
REMARK   20  A    between atoms: _45  and  _47
REMARK   21  A    between atoms: _47  and  _48
REMARK   22  A    between atoms: _47  and  _50
REMARK   23  A    between atoms: _50  and  _51
REMARK   24  A    between atoms: _54  and  _56
REMARK   25  A    between atoms: _56  and  _57
REMARK   26  A    between atoms: _59  and  _61
REMARK   27  A    between atoms: _61  and  _62
REMARK   28  A    between atoms: _65  and  _67
REMARK   29  A    between atoms: _67  and  _68
REMARK   30  A    between atoms: _67  and  _70
REMARK   31  A    between atoms: _70  and  _71
REMARK   32  A    between atoms: _74  and  _76
REMARK   33  A    between atoms: _76  and  _77
REMARK   34  A    between atoms: _76  and  _79
REMARK   35  A    between atoms: _79  and  _80
REMARK   36  A    between atoms: _83  and  _85
REMARK   37  A    between atoms: _85  and  _86
REMARK   38  A    between atoms: _85  and  _88
REMARK   39  A    between atoms: _88  and  _89
REMARK   40  A    between atoms: _92  and  _94
REMARK   41  A    between atoms: _94  and  _95
REMARK   42  A    between atoms: _94  and  _97
REMARK   43  A    between atoms: _100  and  _102
REMARK   44  A    between atoms: _102  and  _103
REMARK   45  A    between atoms: _102  and  _105
REMARK   46  A    between atoms: _105  and  _106
REMARK   47  A    between atoms: _106  and  _107
REMARK   48  A    between atoms: _107  and  _108
REMARK   49  A    between atoms: _108  and  _109
REMARK   50  A    between atoms: _113  and  _115
REMARK   51  A    between atoms: _115  and  _116
REMARK   52  A    between atoms: _115  and  _118
REMARK   53  A    between atoms: _118  and  _119
REMARK   54  A    between atoms: _119  and  _120
REMARK   55  A    between atoms: _122  and  _124
REMARK   56  A    between atoms: _124  and  _125
REMARK   57  A    between atoms: _124  and  _127
REMARK   58  A    between atoms: _127  and  _128
REMARK   59  A    between atoms: _131  and  _133
REMARK   60  A    between atoms: _133  and  _134
REMARK   61  A    between atoms: _136  and  _138
REMARK   62  A    between atoms: _138  and  _139
REMARK   63  A    between atoms: _141  and  _143
REMARK   64  A    between atoms: _143  and  _144
REMARK   65  A    between atoms: _143  and  _146
REMARK   66  A    between atoms: _146  and  _147
REMARK   67  A    between atoms: _150  and  _152
REMARK   68  A    between atoms: _152  and  _153
REMARK   69  A    between atoms: _155  and  _157
REMARK   70  A    between atoms: _157  and  _158
REMARK   71  A    between atoms: _160  and  _162
REMARK   72  A    between atoms: _162  and  _163
REMARK   73  A    between atoms: _162  and  _165
REMARK   74  A    between atoms: _165  and  _166
REMARK   75  A    between atoms: _172  and  _174
REMARK   76  A    between atoms: _174  and  _175
REMARK   77  A    between atoms: _174  and  _177
REMARK   78  A    between atoms: _177  and  _178
REMARK   79  A    between atoms: _181  and  _183
REMARK   80  A    between atoms: _183  and  _184
REMARK   81  A    between atoms: _183  and  _186
REMARK   82  A    between atoms: _189  and  _191
REMARK   83  A    between atoms: _191  and  _192
REMARK   84  A    between atoms: _191  and  _194
REMARK   85  A    between atoms: _194  and  _195
REMARK   86  A    between atoms: _198  and  _200
REMARK   87  A    between atoms: _200  and  _201
REMARK   88  A    between atoms: _200  and  _203
REMARK   89  A    between atoms: _203  and  _204
REMARK   90  A    between atoms: _208  and  _209
REMARK   91  A    between atoms: _214  and  _216
REMARK   92  A    between atoms: _216  and  _217
REMARK   93  A    between atoms: _216  and  _219
REMARK   94  A    between atoms: _222  and  _224
REMARK   95  A    between atoms: _224  and  _225
REMARK   96  A    between atoms: _224  and  _227
REMARK   97  A    between atoms: _227  and  _228
REMARK   98  A    between atoms: _233  and  _235
REMARK   99  A    between atoms: _235  and  _236
REMARK  100  A    between atoms: _235  and  _238
REMARK  101  A    between atoms: _238  and  _239
REMARK  102  A    between atoms: _242  and  _244
REMARK  103  A    between atoms: _244  and  _245
REMARK  104  A    between atoms: _244  and  _247
REMARK  105  A    between atoms: _247  and  _248
REMARK  106  A    between atoms: _251  and  _253
REMARK  107  A    between atoms: _253  and  _254
REMARK  108  A    between atoms: _256  and  _258
REMARK  109  A    between atoms: _258  and  _259
REMARK  110  A    between atoms: _258  and  _261
REMARK  111  A    between atoms: _261  and  _262
REMARK  112  A    between atoms: _262  and  _263
REMARK  113  A    between atoms: _263  and  _264
REMARK  114  A    between atoms: _273  and  _275
REMARK  115  A    between atoms: _275  and  _276
REMARK  116  A    between atoms: _275  and  _278
REMARK  117  A    between atoms: _278  and  _279
REMARK  118  A    between atoms: _284  and  _286
REMARK  119  A    between atoms: _286  and  _287
REMARK  120  A    between atoms: _286  and  _289
REMARK  121  A    between atoms: _289  and  _290
REMARK  122  A    between atoms: _290  and  _291
REMARK  123  A    between atoms: _291  and  _292
REMARK  124  A    between atoms: _301  and  _303
REMARK  125  A    between atoms: _303  and  _304
REMARK  126  A    between atoms: _303  and  _306
REMARK  127  A    between atoms: _306  and  _307
REMARK  128  A    between atoms: _310  and  _312
REMARK  129  A    between atoms: _312  and  _313
REMARK  130  A    between atoms: _312  and  _315
REMARK  131  A    between atoms: _315  and  _316
REMARK  132  A    between atoms: _319  and  _321
REMARK  133  A    between atoms: _321  and  _322
REMARK  134  A    between atoms: _321  and  _324
REMARK  135  A    between atoms: _324  and  _325
REMARK  136  A    between atoms: _328  and  _330
REMARK  137  A    between atoms: _330  and  _331
REMARK  138  A    between atoms: _330  and  _333
REMARK  139  A    between atoms: _333  and  _334
REMARK  140  A    between atoms: _337  and  _339
REMARK  141  A    between atoms: _339  and  _340
REMARK  142  A    between atoms: _342  and  _344
REMARK  143  A    between atoms: _344  and  _345
REMARK  144  A    between atoms: _348  and  _350
REMARK  145  A    between atoms: _350  and  _351
REMARK  146  A    between atoms: _350  and  _353
REMARK  147  A    between atoms: _353  and  _354
REMARK  148  A    between atoms: _357  and  _359
REMARK  149  A    between atoms: _359  and  _360
REMARK  150  A    between atoms: _359  and  _362
REMARK  151  A    between atoms: _362  and  _363
REMARK  152  A    between atoms: _366  and  _368
REMARK  153  A    between atoms: _368  and  _369
REMARK  154  A    between atoms: _368  and  _371
REMARK  155  A    between atoms: _371  and  _372
REMARK  156  A    between atoms: _375  and  _377
REMARK  157  A    between atoms: _377  and  _378
REMARK  158  A    between atoms: _377  and  _380
REMARK  159  A    between atoms: _383  and  _385
REMARK  160  A    between atoms: _385  and  _386
REMARK  161  A    between atoms: _385  and  _388
REMARK  162  A    between atoms: _388  and  _389
REMARK  163  A    between atoms: _389  and  _390
REMARK  164  A    between atoms: _390  and  _391
REMARK  165  A    between atoms: _391  and  _392
REMARK  166  A    between atoms: _396  and  _398
REMARK  167  A    between atoms: _398  and  _399
REMARK  168  A    between atoms: _398  and  _401
REMARK  169  A    between atoms: _401  and  _402
REMARK  170  A    between atoms: _402  and  _403
REMARK  171  A    between atoms: _405  and  _407
REMARK  172  A    between atoms: _407  and  _408
REMARK  173  A    between atoms: _407  and  _410
REMARK  174  A    between atoms: _410  and  _411
REMARK  175  A    between atoms: _414  and  _416
REMARK  176  A    between atoms: _416  and  _417
REMARK  177  A    between atoms: _419  and  _421
REMARK  178  A    between atoms: _421  and  _422
REMARK  179  A    between atoms: _424  and  _426
REMARK  180  A    between atoms: _426  and  _427
REMARK  181  A    between atoms: _426  and  _429
REMARK  182  A    between atoms: _429  and  _430
REMARK  183  A    between atoms: _433  and  _435
REMARK  184  A    between atoms: _435  and  _436
REMARK  185  A    between atoms: _438  and  _440
REMARK  186  A    between atoms: _440  and  _441
REMARK  187  A    between atoms: _443  and  _445
REMARK  188  A    between atoms: _445  and  _446
REMARK  189  A    between atoms: _445  and  _448
REMARK  190  A    between atoms: _448  and  _449
REMARK  191  A    between atoms: _455  and  _457
REMARK  192  A    between atoms: _457  and  _458
REMARK  193  A    between atoms: _457  and  _460
REMARK  194  A    between atoms: _460  and  _461
REMARK  195  A    between atoms: _464  and  _466
REMARK  196  A    between atoms: _466  and  _467
REMARK  197  A    between atoms: _466  and  _469
REMARK  198  A    between atoms: _472  and  _474
REMARK  199  A    between atoms: _474  and  _475
REMARK  200  A    between atoms: _474  and  _477
REMARK  201  A    between atoms: _477  and  _478
REMARK  202  A    between atoms: _481  and  _483
REMARK  203  A    between atoms: _483  and  _484
REMARK  204  A    between atoms: _483  and  _486
REMARK  205  A    between atoms: _486  and  _487
REMARK  206  A    between atoms: _491  and  _492
REMARK  207  A    between atoms: _497  and  _499
REMARK  208  A    between atoms: _499  and  _500
REMARK  209  A    between atoms: _499  and  _502
REMARK  210  A    between atoms: _505  and  _507
REMARK  211  A    between atoms: _507  and  _508
REMARK  212  A    between atoms: _507  and  _510
REMARK  213  A    between atoms: _510  and  _511
REMARK  214  A    between atoms: _516  and  _518
REMARK  215  A    between atoms: _518  and  _519
REMARK  216  A    between atoms: _518  and  _521
REMARK  217  A    between atoms: _521  and  _522
REMARK  218  A    between atoms: _525  and  _527
REMARK  219  A    between atoms: _527  and  _528
REMARK  220  A    between atoms: _527  and  _530
REMARK  221  A    between atoms: _530  and  _531
REMARK  222  A    between atoms: _534  and  _536
REMARK  223  A    between atoms: _536  and  _537
REMARK  224  A    between atoms: _539  and  _541
REMARK  225  A    between atoms: _541  and  _542
REMARK  226  A    between atoms: _541  and  _544
REMARK  227  A    between atoms: _544  and  _545
REMARK  228  A    between atoms: _545  and  _546
REMARK  229  A    between atoms: _546  and  _547
REMARK  230  A    between atoms: _556  and  _558
REMARK  231  A    between atoms: _558  and  _559
REMARK  232  A    between atoms: _558  and  _561
REMARK  233  A    between atoms: _561  and  _562
REMARK                            x       y       z     vdW  Elec       q    Type
REMARK                         _______ _______ _______ _____ _____    ______ ____
ROOT
ATOM      1  O   HOH     1      13.268  16.030  11.656  0.00  0.00    +0.000 OA
ENDROOT
TORSDOF 0
REMARK  Name = ../refined-set-2016/2z4o/2z4o_pocket.pdb
REMARK  233 active torsions:
REMARK  status: ('A' for Active; 'I' for Inactive)
REMARK    1  A    between atoms: _1  and  _3
REMARK    2  A    between atoms: _3  and  _4
REMARK    3  A    between atoms: _3  and  _6
REMARK    4  A    between atoms: _6  and  _7
REMARK    5  A    between atoms: _7  and  _8
REMARK    6  A    between atoms: _8  and  _9
REMARK    7  A    between atoms: _11  and  _15
REMARK    8  A    between atoms: _18  and  _20
REMARK    9  A    between atoms: _20  and  _21
REMARK   10  A    between atoms: _20  and  _23
REMARK   11  A    between atoms: _23  and  _24
REMARK   12  A    between atoms: _27  and  _29
REMARK   13  A    between atoms: _29  and  _30
REMARK   14  A    between atoms: _29  and  _32
REMARK   15  A    between atoms: _32  and  _33
REMARK   16  A    between atoms: _36  and  _38
REMARK   17  A    between atoms: _38  and  _39
REMARK   18  A    between atoms: _38  and  _41
REMARK   19  A    between atoms: _41  and  _42
REMARK   20  A    between atoms: _45  and  _47
REMARK   21  A    between atoms: _47  and  _48
REMARK   22  A    between atoms: _47  and  _50
REMARK   23  A    between atoms: _50  and  _51
REMARK   24  A    between atoms: _54  and  _56
REMARK   25  A    between atoms: _56  and  _57
REMARK   26  A    between atoms: _59  and  _61
REMARK   27  A    between atoms: _61  and  _62
REMARK   28  A    between atoms: _65  and  _67
REMARK   29  A    between atoms: _67  and  _68
REMARK   30  A    between atoms: _67  and  _70
REMARK   31  A    between atoms: _70  and  _71
REMARK   32  A    between atoms: _74  and  _76
REMARK   33  A    between atoms: _76  and  _77
REMARK   34  A    between atoms: _76  and  _79
REMARK   35  A    between atoms: _79  and  _80
REMARK   36  A    between atoms: _83  and  _85
REMARK   37  A    between atoms: _85  and  _86
REMARK   38  A    between atoms: _85  and  _88
REMARK   39  A    between atoms: _88  and  _89
REMARK   40  A    between atoms: _92  and  _94
REMARK   41  A    between atoms: _94  and  _95
REMARK   42  A    between atoms: _94  and  _97
REMARK   43  A    between atoms: _100  and  _102
REMARK   44  A    between atoms: _102  and  _103
REMARK   45  A    between atoms: _102  and  _105
REMARK   46  A    between atoms: _105  and  _106
REMARK   47  A    between atoms: _106  and  _107
REMARK   48  A    between atoms: _107  and  _108
REMARK   49  A    between atoms: _108  and  _109
REMARK   50  A    between atoms: _113  and  _115
REMARK   51  A    between atoms: _115  and  _116
REMARK   52  A    between atoms: _115  and  _118
REMARK   53  A    between atoms: _118  and  _119
REMARK   54  A    between atoms: _119  and  _120
REMARK   55  A    between atoms: _122  and  _124
REMARK   56  A    between atoms: _124  and  _125
REMARK   57  A    between atoms: _124  and  _127
REMARK   58  A    between atoms: _127  and  _128
REMARK   59  A    between atoms: _131  and  _133
REMARK   60  A    between atoms: _133  and  _134
REMARK   61  A    between atoms: _136  and  _138
REMARK   62  A    between atoms: _138  and  _139
REMARK   63  A    between atoms: _141  and  _143
REMARK   64  A    between atoms: _143  and  _144
REMARK   65  A    between atoms: _143  and  _146
REMARK   66  A    between atoms: _146  and  _147
REMARK   67  A    between atoms: _150  and  _152
REMARK   68  A    between atoms: _152  and  _153
REMARK   69  A    between atoms: _155  and  _157
REMARK   70  A    between atoms: _157  and  _158
REMARK   71  A    between atoms: _160  and  _162
REMARK   72  A    between atoms: _162  and  _163
REMARK   73  A    between atoms: _162  and  _165
REMARK   74  A    between atoms: _165  and  _166
REMARK   75  A    between atoms: _172  and  _174
REMARK   76  A    between atoms: _174  and  _175
REMARK   77  A    between atoms: _174  and  _177
REMARK   78  A    between atoms: _177  and  _178
REMARK   79  A    between atoms: _181  and  _183
REMARK   80  A    between atoms: _183  and  _184
REMARK   81  A    between atoms: _183  and  _186
REMARK   82  A    between atoms: _189  and  _191
REMARK   83  A    between atoms: _191  and  _192
REMARK   84  A    between atoms: _191  and  _194
REMARK   85  A    between atoms: _194  and  _195
REMARK   86  A    between atoms: _198  and  _200
REMARK   87  A    between atoms: _200  and  _201
REMARK   88  A    between atoms: _200  and  _203
REMARK   89  A    between atoms: _203  and  _204
REMARK   90  A    between atoms: _208  and  _209
REMARK   91  A    between atoms: _214  and  _216
REMARK   92  A    between atoms: _216  and  _217
REMARK   93  A    between atoms: _216  and  _219
REMARK   94  A    between atoms: _222  and  _224
REMARK   95  A    between atoms: _224  and  _225
REMARK   96  A    between atoms: _224  and  _227
REMARK   97  A    between atoms: _227  and  _228
REMARK   98  A    between atoms: _233  and  _235
REMARK   99  A    between atoms: _235  and  _236
REMARK  100  A    between atoms: _235  and  _238
REMARK  101  A    between atoms: _238  and  _239
REMARK  102  A    between atoms: _242  and  _244
REMARK  103  A    between atoms: _244  and  _245
REMARK  104  A    between atoms: _244  and  _247
REMARK  105  A    between atoms: _247  and  _248
REMARK  106  A    between atoms: _251  and  _253
REMARK  107  A    between atoms: _253  and  _254
REMARK  108  A    between atoms: _256  and  _258
REMARK  109  A    between atoms: _258  and  _259
REMARK  110  A    between atoms: _258  and  _261
REMARK  111  A    between atoms: _261  and  _262
REMARK  112  A    between atoms: _262  and  _263
REMARK  113  A    between atoms: _263  and  _264
REMARK  114  A    between atoms: _273  and  _275
REMARK  115  A    between atoms: _275  and  _276
REMARK  116  A    between atoms: _275  and  _278
REMARK  117  A    between atoms: _278  and  _279
REMARK  118  A    between atoms: _284  and  _286
REMARK  119  A    between atoms: _286  and  _287
REMARK  120  A    between atoms: _286  and  _289
REMARK  121  A    between atoms: _289  and  _290
REMARK  122  A    between atoms: _290  and  _291
REMARK  123  A    between atoms: _291  and  _292
REMARK  124  A    between atoms: _301  and  _303
REMARK  125  A    between atoms: _303  and  _304
REMARK  126  A    between atoms: _303  and  _306
REMARK  127  A    between atoms: _306  and  _307
REMARK  128  A    between atoms: _310  and  _312
REMARK  129  A    between atoms: _312  and  _313
REMARK  130  A    between atoms: _312  and  _315
REMARK  131  A    between atoms: _315  and  _316
REMARK  132  A    between atoms: _319  and  _321
REMARK  133  A    between atoms: _321  and  _322
REMARK  134  A    between atoms: _321  and  _324
REMARK  135  A    between atoms: _324  and  _325
REMARK  136  A    between atoms: _328  and  _330
REMARK  137  A    between atoms: _330  and  _331
REMARK  138  A    between atoms: _330  and  _333
REMARK  139  A    between atoms: _333  and  _334
REMARK  140  A    between atoms: _337  and  _339
REMARK  141  A    between atoms: _339  and  _340
REMARK  142  A    between atoms: _342  and  _344
REMARK  143  A    between atoms: _344  and  _345
REMARK  144  A    between atoms: _348  and  _350
REMARK  145  A    between atoms: _350  and  _351
REMARK  146  A    between atoms: _350  and  _353
REMARK  147  A    between atoms: _353  and  _354
REMARK  148  A    between atoms: _357  and  _359
REMARK  149  A    between atoms: _359  and  _360
REMARK  150  A    between atoms: _359  and  _362
REMARK  151  A    between atoms: _362  and  _363
REMARK  152  A    between atoms: _366  and  _368
REMARK  153  A    between atoms: _368  and  _369
REMARK  154  A    between atoms: _368  and  _371
REMARK  155  A    between atoms: _371  and  _372
REMARK  156  A    between atoms: _375  and  _377
REMARK  157  A    between atoms: _377  and  _378
REMARK  158  A    between atoms: _377  and  _380
REMARK  159  A    between atoms: _383  and  _385
REMARK  160  A    between atoms: _385  and  _386
REMARK  161  A    between atoms: _385  and  _388
REMARK  162  A    between atoms: _388  and  _389
REMARK  163  A    between atoms: _389  and  _390
REMARK  164  A    between atoms: _390  and  _391
REMARK  165  A    between atoms: _391  and  _392
REMARK  166  A    between atoms: _396  and  _398
REMARK  167  A    between atoms: _398  and  _399
REMARK  168  A    between atoms: _398  and  _401
REMARK  169  A    between atoms: _401  and  _402
REMARK  170  A    between atoms: _402  and  _403
REMARK  171  A    between atoms: _405  and  _407
REMARK  172  A    between atoms: _407  and  _408
REMARK  173  A    between atoms: _407  and  _410
REMARK  174  A    between atoms: _410  and  _411
REMARK  175  A    between atoms: _414  and  _416
REMARK  176  A    between atoms: _416  and  _417
REMARK  177  A    between atoms: _419  and  _421
REMARK  178  A    between atoms: _421  and  _422
REMARK  179  A    between atoms: _424  and  _426
REMARK  180  A    between atoms: _426  and  _427
REMARK  181  A    between atoms: _426  and  _429
REMARK  182  A    between atoms: _429  and  _430
REMARK  183  A    between atoms: _433  and  _435
REMARK  184  A    between atoms: _435  and  _436
REMARK  185  A    between atoms: _438  and  _440
REMARK  186  A    between atoms: _440  and  _441
REMARK  187  A    between atoms: _443  and  _445
REMARK  188  A    between atoms: _445  and  _446
REMARK  189  A    between atoms: _445  and  _448
REMARK  190  A    between atoms: _448  and  _449
REMARK  191  A    between atoms: _455  and  _457
REMARK  192  A    between atoms: _457  and  _458
REMARK  193  A    between atoms: _457  and  _460
REMARK  194  A    between atoms: _460  and  _461
REMARK  195  A    between atoms: _464  and  _466
REMARK  196  A    between atoms: _466  and  _467
REMARK  197  A    between atoms: _466  and  _469
REMARK  198  A    between atoms: _472  and  _474
REMARK  199  A    between atoms: _474  and  _475
REMARK  200  A    between atoms: _474  and  _477
REMARK  201  A    between atoms: _477  and  _478
REMARK  202  A    between atoms: _481  and  _483
REMARK  203  A    between atoms: _483  and  _484
REMARK  204  A    between atoms: _483  and  _486
REMARK  205  A    between atoms: _486  and  _487
REMARK  206  A    between atoms: _491  and  _492
REMARK  207  A    between atoms: _497  and  _499
REMARK  208  A    between atoms: _499  and  _500
REMARK  209  A    between atoms: _499  and  _502
REMARK  210  A    between atoms: _505  and  _507
REMARK  211  A    between atoms: _507  and  _508
REMARK  212  A    between atoms: _507  and  _510
REMARK  213  A    between atoms: _510  and  _511
REMARK  214  A    between atoms: _516  and  _518
REMARK  215  A    between atoms: _518  and  _519
REMARK  216  A    between atoms: _518  and  _521
REMARK  217  A    between atoms: _521  and  _522
REMARK  218  A    between atoms: _525  and  _527
REMARK  219  A    between atoms: _527  and  _528
REMARK  220  A    between atoms: _527  and  _530
REMARK  221  A    between atoms: _530  and  _531
REMARK  222  A    between atoms: _534  and  _536
REMARK  223  A    between atoms: _536  and  _537
REMARK  224  A    between atoms: _539  and  _541
REMARK  225  A    between atoms: _541  and  _542
REMARK  226  A    between atoms: _541  and  _544
REMARK  227  A    between atoms: _544  and  _545
REMARK  228  A    between atoms: _545  and  _546
REMARK  229  A    between atoms: _546  and  _547
REMARK  230  A    between atoms: _556  and  _558
REMARK  231  A    between atoms: _558  and  _559
REMARK  232  A    between atoms: _558  and  _561
REMARK  233  A    between atoms: _561  and  _562
REMARK                            x       y       z     vdW  Elec       q    Type
REMARK                         _______ _______ _______ _____ _____    ______ ____
ROOT
ATOM      1  O   HOH     1      23.330  27.962  26.088  0.00  0.00    +0.000 OA
ENDROOT
TORSDOF 0
REMARK  Name = ../refined-set-2016/2z4o/2z4o_pocket.pdb
REMARK  233 active torsions:
REMARK  status: ('A' for Active; 'I' for Inactive)
REMARK    1  A    between atoms: _1  and  _3
REMARK    2  A    between atoms: _3  and  _4
REMARK    3  A    between atoms: _3  and  _6
REMARK    4  A    between atoms: _6  and  _7
REMARK    5  A    between atoms: _7  and  _8
REMARK    6  A    between atoms: _8  and  _9
REMARK    7  A    between atoms: _11  and  _15
REMARK    8  A    between atoms: _18  and  _20
REMARK    9  A    between atoms: _20  and  _21
REMARK   10  A    between atoms: _20  and  _23
REMARK   11  A    between atoms: _23  and  _24
REMARK   12  A    between atoms: _27  and  _29
REMARK   13  A    between atoms: _29  and  _30
REMARK   14  A    between atoms: _29  and  _32
REMARK   15  A    between atoms: _32  and  _33
REMARK   16  A    between atoms: _36  and  _38
REMARK   17  A    between atoms: _38  and  _39
REMARK   18  A    between atoms: _38  and  _41
REMARK   19  A    between atoms: _41  and  _42
REMARK   20  A    between atoms: _45  and  _47
REMARK   21  A    between atoms: _47  and  _48
REMARK   22  A    between atoms: _47  and  _50
REMARK   23  A    between atoms: _50  and  _51
REMARK   24  A    between atoms: _54  and  _56
REMARK   25  A    between atoms: _56  and  _57
REMARK   26  A    between atoms: _59  and  _61
REMARK   27  A    between atoms: _61  and  _62
REMARK   28  A    between atoms: _65  and  _67
REMARK   29  A    between atoms: _67  and  _68
REMARK   30  A    between atoms: _67  and  _70
REMARK   31  A    between atoms: _70  and  _71
REMARK   32  A    between atoms: _74  and  _76
REMARK   33  A    between atoms: _76  and  _77
REMARK   34  A    between atoms: _76  and  _79
REMARK   35  A    between atoms: _79  and  _80
REMARK   36  A    between atoms: _83  and  _85
REMARK   37  A    between atoms: _85  and  _86
REMARK   38  A    between atoms: _85  and  _88
REMARK   39  A    between atoms: _88  and  _89
REMARK   40  A    between atoms: _92  and  _94
REMARK   41  A    between atoms: _94  and  _95
REMARK   42  A    between atoms: _94  and  _97
REMARK   43  A    between atoms: _100  and  _102
REMARK   44  A    between atoms: _102  and  _103
REMARK   45  A    between atoms: _102  and  _105
REMARK   46  A    between atoms: _105  and  _106
REMARK   47  A    between atoms: _106  and  _107
REMARK   48  A    between atoms: _107  and  _108
REMARK   49  A    between atoms: _108  and  _109
REMARK   50  A    between atoms: _113  and  _115
REMARK   51  A    between atoms: _115  and  _116
REMARK   52  A    between atoms: _115  and  _118
REMARK   53  A    between atoms: _118  and  _119
REMARK   54  A    between atoms: _119  and  _120
REMARK   55  A    between atoms: _122  and  _124
REMARK   56  A    between atoms: _124  and  _125
REMARK   57  A    between atoms: _124  and  _127
REMARK   58  A    between atoms: _127  and  _128
REMARK   59  A    between atoms: _131  and  _133
REMARK   60  A    between atoms: _133  and  _134
REMARK   61  A    between atoms: _136  and  _138
REMARK   62  A    between atoms: _138  and  _139
REMARK   63  A    between atoms: _141  and  _143
REMARK   64  A    between atoms: _143  and  _144
REMARK   65  A    between atoms: _143  and  _146
REMARK   66  A    between atoms: _146  and  _147
REMARK   67  A    between atoms: _150  and  _152
REMARK   68  A    between atoms: _152  and  _153
REMARK   69  A    between atoms: _155  and  _157
REMARK   70  A    between atoms: _157  and  _158
REMARK   71  A    between atoms: _160  and  _162
REMARK   72  A    between atoms: _162  and  _163
REMARK   73  A    between atoms: _162  and  _165
REMARK   74  A    between atoms: _165  and  _166
REMARK   75  A    between atoms: _172  and  _174
REMARK   76  A    between atoms: _174  and  _175
REMARK   77  A    between atoms: _174  and  _177
REMARK   78  A    between atoms: _177  and  _178
REMARK   79  A    between atoms: _181  and  _183
REMARK   80  A    between atoms: _183  and  _184
REMARK   81  A    between atoms: _183  and  _186
REMARK   82  A    between atoms: _189  and  _191
REMARK   83  A    between atoms: _191  and  _192
REMARK   84  A    between atoms: _191  and  _194
REMARK   85  A    between atoms: _194  and  _195
REMARK   86  A    between atoms: _198  and  _200
REMARK   87  A    between atoms: _200  and  _201
REMARK   88  A    between atoms: _200  and  _203
REMARK   89  A    between atoms: _203  and  _204
REMARK   90  A    between atoms: _208  and  _209
REMARK   91  A    between atoms: _214  and  _216
REMARK   92  A    between atoms: _216  and  _217
REMARK   93  A    between atoms: _216  and  _219
REMARK   94  A    between atoms: _222  and  _224
REMARK   95  A    between atoms: _224  and  _225
REMARK   96  A    between atoms: _224  and  _227
REMARK   97  A    between atoms: _227  and  _228
REMARK   98  A    between atoms: _233  and  _235
REMARK   99  A    between atoms: _235  and  _236
REMARK  100  A    between atoms: _235  and  _238
REMARK  101  A    between atoms: _238  and  _239
REMARK  102  A    between atoms: _242  and  _244
REMARK  103  A    between atoms: _244  and  _245
REMARK  104  A    between atoms: _244  and  _247
REMARK  105  A    between atoms: _247  and  _248
REMARK  106  A    between atoms: _251  and  _253
REMARK  107  A    between atoms: _253  and  _254
REMARK  108  A    between atoms: _256  and  _258
REMARK  109  A    between atoms: _258  and  _259
REMARK  110  A    between atoms: _258  and  _261
REMARK  111  A    between atoms: _261  and  _262
REMARK  112  A    between atoms: _262  and  _263
REMARK  113  A    between atoms: _263  and  _264
REMARK  114  A    between atoms: _273  and  _275
REMARK  115  A    between atoms: _275  and  _276
REMARK  116  A    between atoms: _275  and  _278
REMARK  117  A    between atoms: _278  and  _279
REMARK  118  A    between atoms: _284  and  _286
REMARK  119  A    between atoms: _286  and  _287
REMARK  120  A    between atoms: _286  and  _289
REMARK  121  A    between atoms: _289  and  _290
REMARK  122  A    between atoms: _290  and  _291
REMARK  123  A    between atoms: _291  and  _292
REMARK  124  A    between atoms: _301  and  _303
REMARK  125  A    between atoms: _303  and  _304
REMARK  126  A    between atoms: _303  and  _306
REMARK  127  A    between atoms: _306  and  _307
REMARK  128  A    between atoms: _310  and  _312
REMARK  129  A    between atoms: _312  and  _313
REMARK  130  A    between atoms: _312  and  _315
REMARK  131  A    between atoms: _315  and  _316
REMARK  132  A    between atoms: _319  and  _321
REMARK  133  A    between atoms: _321  and  _322
REMARK  134  A    between atoms: _321  and  _324
REMARK  135  A    between atoms: _324  and  _325
REMARK  136  A    between atoms: _328  and  _330
REMARK  137  A    between atoms: _330  and  _331
REMARK  138  A    between atoms: _330  and  _333
REMARK  139  A    between atoms: _333  and  _334
REMARK  140  A    between atoms: _337  and  _339
REMARK  141  A    between atoms: _339  and  _340
REMARK  142  A    between atoms: _342  and  _344
REMARK  143  A    between atoms: _344  and  _345
REMARK  144  A    between atoms: _348  and  _350
REMARK  145  A    between atoms: _350  and  _351
REMARK  146  A    between atoms: _350  and  _353
REMARK  147  A    between atoms: _353  and  _354
REMARK  148  A    between atoms: _357  and  _359
REMARK  149  A    between atoms: _359  and  _360
REMARK  150  A    between atoms: _359  and  _362
REMARK  151  A    between atoms: _362  and  _363
REMARK  152  A    between atoms: _366  and  _368
REMARK  153  A    between atoms: _368  and  _369
REMARK  154  A    between atoms: _368  and  _371
REMARK  155  A    between atoms: _371  and  _372
REMARK  156  A    between atoms: _375  and  _377
REMARK  157  A    between atoms: _377  and  _378
REMARK  158  A    between atoms: _377  and  _380
REMARK  159  A    between atoms: _383  and  _385
REMARK  160  A    between atoms: _385  and  _386
REMARK  161  A    between atoms: _385  and  _388
REMARK  162  A    between atoms: _388  and  _389
REMARK  163  A    between atoms: _389  and  _390
REMARK  164  A    between atoms: _390  and  _391
REMARK  165  A    between atoms: _391  and  _392
REMARK  166  A    between atoms: _396  and  _398
REMARK  167  A    between atoms: _398  and  _399
REMARK  168  A    between atoms: _398  and  _401
REMARK  169  A    between atoms: _401  and  _402
REMARK  170  A    between atoms: _402  and  _403
REMARK  171  A    between atoms: _405  and  _407
REMARK  172  A    between atoms: _407  and  _408
REMARK  173  A    between atoms: _407  and  _410
REMARK  174  A    between atoms: _410  and  _411
REMARK  175  A    between atoms: _414  and  _416
REMARK  176  A    between atoms: _416  and  _417
REMARK  177  A    between atoms: _419  and  _421
REMARK  178  A    between atoms: _421  and  _422
REMARK  179  A    between atoms: _424  and  _426
REMARK  180  A    between atoms: _426  and  _427
REMARK  181  A    between atoms: _426  and  _429
REMARK  182  A    between atoms: _429  and  _430
REMARK  183  A    between atoms: _433  and  _435
REMARK  184  A    between atoms: _435  and  _436
REMARK  185  A    between atoms: _438  and  _440
REMARK  186  A    between atoms: _440  and  _441
REMARK  187  A    between atoms: _443  and  _445
REMARK  188  A    between atoms: _445  and  _446
REMARK  189  A    between atoms: _445  and  _448
REMARK  190  A    between atoms: _448  and  _449
REMARK  191  A    between atoms: _455  and  _457
REMARK  192  A    between atoms: _457  and  _458
REMARK  193  A    between atoms: _457  and  _460
REMARK  194  A    between atoms: _460  and  _461
REMARK  195  A    between atoms: _464  and  _466
REMARK  196  A    between atoms: _466  and  _467
REMARK  197  A    between atoms: _466  and  _469
REMARK  198  A    between atoms: _472  and  _474
REMARK  199  A    between atoms: _474  and  _475
REMARK  200  A    between atoms: _474  and  _477
REMARK  201  A    between atoms: _477  and  _478
REMARK  202  A    between atoms: _481  and  _483
REMARK  203  A    between atoms: _483  and  _484
REMARK  204  A    between atoms: _483  and  _486
REMARK  205  A    between atoms: _486  and  _487
REMARK  206  A    between atoms: _491  and  _492
REMARK  207  A    between atoms: _497  and  _499
REMARK  208  A    between atoms: _499  and  _500
REMARK  209  A    between atoms: _499  and  _502
REMARK  210  A    between atoms: _505  and  _507
REMARK  211  A    between atoms: _507  and  _508
REMARK  212  A    between atoms: _507  and  _510
REMARK  213  A    between atoms: _510  and  _511
REMARK  214  A    between atoms: _516  and  _518
REMARK  215  A    between atoms: _518  and  _519
REMARK  216  A    between atoms: _518  and  _521
REMARK  217  A    between atoms: _521  and  _522
REMARK  218  A    between atoms: _525  and  _527
REMARK  219  A    between atoms: _527  and  _528
REMARK  220  A    between atoms: _527  and  _530
REMARK  221  A    between atoms: _530  and  _531
REMARK  222  A    between atoms: _534  and  _536
REMARK  223  A    between atoms: _536  and  _537
REMARK  224  A    between atoms: _539  and  _541
REMARK  225  A    between atoms: _541  and  _542
REMARK  226  A    between atoms: _541  and  _544
REMARK  227  A    between atoms: _544  and  _545
REMARK  228  A    between atoms: _545  and  _546
REMARK  229  A    between atoms: _546  and  _547
REMARK  230  A    between atoms: _556  and  _558
REMARK  231  A    between atoms: _558  and  _559
REMARK  232  A    between atoms: _558  and  _561
REMARK  233  A    between atoms: _561  and  _562
REMARK                            x       y       z     vdW  Elec       q    Type
REMARK                         _______ _______ _______ _____ _____    ______ ____
ROOT
ATOM      1  O   HOH     1       7.033  15.485  18.470  0.00  0.00    +0.000 OA
ENDROOT
TORSDOF 0
REMARK  Name = ../refined-set-2016/2z4o/2z4o_pocket.pdb
REMARK  233 active torsions:
REMARK  status: ('A' for Active; 'I' for Inactive)
REMARK    1  A    between atoms: _1  and  _3
REMARK    2  A    between atoms: _3  and  _4
REMARK    3  A    between atoms: _3  and  _6
REMARK    4  A    between atoms: _6  and  _7
REMARK    5  A    between atoms: _7  and  _8
REMARK    6  A    between atoms: _8  and  _9
REMARK    7  A    between atoms: _11  and  _15
REMARK    8  A    between atoms: _18  and  _20
REMARK    9  A    between atoms: _20  and  _21
REMARK   10  A    between atoms: _20  and  _23
REMARK   11  A    between atoms: _23  and  _24
REMARK   12  A    between atoms: _27  and  _29
REMARK   13  A    between atoms: _29  and  _30
REMARK   14  A    between atoms: _29  and  _32
REMARK   15  A    between atoms: _32  and  _33
REMARK   16  A    between atoms: _36  and  _38
REMARK   17  A    between atoms: _38  and  _39
REMARK   18  A    between atoms: _38  and  _41
REMARK   19  A    between atoms: _41  and  _42
REMARK   20  A    between atoms: _45  and  _47
REMARK   21  A    between atoms: _47  and  _48
REMARK   22  A    between atoms: _47  and  _50
REMARK   23  A    between atoms: _50  and  _51
REMARK   24  A    between atoms: _54  and  _56
REMARK   25  A    between atoms: _56  and  _57
REMARK   26  A    between atoms: _59  and  _61
REMARK   27  A    between atoms: _61  and  _62
REMARK   28  A    between atoms: _65  and  _67
REMARK   29  A    between atoms: _67  and  _68
REMARK   30  A    between atoms: _67  and  _70
REMARK   31  A    between atoms: _70  and  _71
REMARK   32  A    between atoms: _74  and  _76
REMARK   33  A    between atoms: _76  and  _77
REMARK   34  A    between atoms: _76  and  _79
REMARK   35  A    between atoms: _79  and  _80
REMARK   36  A    between atoms: _83  and  _85
REMARK   37  A    between atoms: _85  and  _86
REMARK   38  A    between atoms: _85  and  _88
REMARK   39  A    between atoms: _88  and  _89
REMARK   40  A    between atoms: _92  and  _94
REMARK   41  A    between atoms: _94  and  _95
REMARK   42  A    between atoms: _94  and  _97
REMARK   43  A    between atoms: _100  and  _102
REMARK   44  A    between atoms: _102  and  _103
REMARK   45  A    between atoms: _102  and  _105
REMARK   46  A    between atoms: _105  and  _106
REMARK   47  A    between atoms: _106  and  _107
REMARK   48  A    between atoms: _107  and  _108
REMARK   49  A    between atoms: _108  and  _109
REMARK   50  A    between atoms: _113  and  _115
REMARK   51  A    between atoms: _115  and  _116
REMARK   52  A    between atoms: _115  and  _118
REMARK   53  A    between atoms: _118  and  _119
REMARK   54  A    between atoms: _119  and  _120
REMARK   55  A    between atoms: _122  and  _124
REMARK   56  A    between atoms: _124  and  _125
REMARK   57  A    between atoms: _124  and  _127
REMARK   58  A    between atoms: _127  and  _128
REMARK   59  A    between atoms: _131  and  _133
REMARK   60  A    between atoms: _133  and  _134
REMARK   61  A    between atoms: _136  and  _138
REMARK   62  A    between atoms: _138  and  _139
REMARK   63  A    between atoms: _141  and  _143
REMARK   64  A    between atoms: _143  and  _144
REMARK   65  A    between atoms: _143  and  _146
REMARK   66  A    between atoms: _146  and  _147
REMARK   67  A    between atoms: _150  and  _152
REMARK   68  A    between atoms: _152  and  _153
REMARK   69  A    between atoms: _155  and  _157
REMARK   70  A    between atoms: _157  and  _158
REMARK   71  A    between atoms: _160  and  _162
REMARK   72  A    between atoms: _162  and  _163
REMARK   73  A    between atoms: _162  and  _165
REMARK   74  A    between atoms: _165  and  _166
REMARK   75  A    between atoms: _172  and  _174
REMARK   76  A    between atoms: _174  and  _175
REMARK   77  A    between atoms: _174  and  _177
REMARK   78  A    between atoms: _177  and  _178
REMARK   79  A    between atoms: _181  and  _183
REMARK   80  A    between atoms: _183  and  _184
REMARK   81  A    between atoms: _183  and  _186
REMARK   82  A    between atoms: _189  and  _191
REMARK   83  A    between atoms: _191  and  _192
REMARK   84  A    between atoms: _191  and  _194
REMARK   85  A    between atoms: _194  and  _195
REMARK   86  A    between atoms: _198  and  _200
REMARK   87  A    between atoms: _200  and  _201
REMARK   88  A    between atoms: _200  and  _203
REMARK   89  A    between atoms: _203  and  _204
REMARK   90  A    between atoms: _208  and  _209
REMARK   91  A    between atoms: _214  and  _216
REMARK   92  A    between atoms: _216  and  _217
REMARK   93  A    between atoms: _216  and  _219
REMARK   94  A    between atoms: _222  and  _224
REMARK   95  A    between atoms: _224  and  _225
REMARK   96  A    between atoms: _224  and  _227
REMARK   97  A    between atoms: _227  and  _228
REMARK   98  A    between atoms: _233  and  _235
REMARK   99  A    between atoms: _235  and  _236
REMARK  100  A    between atoms: _235  and  _238
REMARK  101  A    between atoms: _238  and  _239
REMARK  102  A    between atoms: _242  and  _244
REMARK  103  A    between atoms: _244  and  _245
REMARK  104  A    between atoms: _244  and  _247
REMARK  105  A    between atoms: _247  and  _248
REMARK  106  A    between atoms: _251  and  _253
REMARK  107  A    between atoms: _253  and  _254
REMARK  108  A    between atoms: _256  and  _258
REMARK  109  A    between atoms: _258  and  _259
REMARK  110  A    between atoms: _258  and  _261
REMARK  111  A    between atoms: _261  and  _262
REMARK  112  A    between atoms: _262  and  _263
REMARK  113  A    between atoms: _263  and  _264
REMARK  114  A    between atoms: _273  and  _275
REMARK  115  A    between atoms: _275  and  _276
REMARK  116  A    between atoms: _275  and  _278
REMARK  117  A    between atoms: _278  and  _279
REMARK  118  A    between atoms: _284  and  _286
REMARK  119  A    between atoms: _286  and  _287
REMARK  120  A    between atoms: _286  and  _289
REMARK  121  A    between atoms: _289  and  _290
REMARK  122  A    between atoms: _290  and  _291
REMARK  123  A    between atoms: _291  and  _292
REMARK  124  A    between atoms: _301  and  _303
REMARK  125  A    between atoms: _303  and  _304
REMARK  126  A    between atoms: _303  and  _306
REMARK  127  A    between atoms: _306  and  _307
REMARK  128  A    between atoms: _310  and  _312
REMARK  129  A    between atoms: _312  and  _313
REMARK  130  A    between atoms: _312  and  _315
REMARK  131  A    between atoms: _315  and  _316
REMARK  132  A    between atoms: _319  and  _321
REMARK  133  A    between atoms: _321  and  _322
REMARK  134  A    between atoms: _321  and  _324
REMARK  135  A    between atoms: _324  and  _325
REMARK  136  A    between atoms: _328  and  _330
REMARK  137  A    between atoms: _330  and  _331
REMARK  138  A    between atoms: _330  and  _333
REMARK  139  A    between atoms: _333  and  _334
REMARK  140  A    between atoms: _337  and  _339
REMARK  141  A    between atoms: _339  and  _340
REMARK  142  A    between atoms: _342  and  _344
REMARK  143  A    between atoms: _344  and  _345
REMARK  144  A    between atoms: _348  and  _350
REMARK  145  A    between atoms: _350  and  _351
REMARK  146  A    between atoms: _350  and  _353
REMARK  147  A    between atoms: _353  and  _354
REMARK  148  A    between atoms: _357  and  _359
REMARK  149  A    between atoms: _359  and  _360
REMARK  150  A    between atoms: _359  and  _362
REMARK  151  A    between atoms: _362  and  _363
REMARK  152  A    between atoms: _366  and  _368
REMARK  153  A    between atoms: _368  and  _369
REMARK  154  A    between atoms: _368  and  _371
REMARK  155  A    between atoms: _371  and  _372
REMARK  156  A    between atoms: _375  and  _377
REMARK  157  A    between atoms: _377  and  _378
REMARK  158  A    between atoms: _377  and  _380
REMARK  159  A    between atoms: _383  and  _385
REMARK  160  A    between atoms: _385  and  _386
REMARK  161  A    between atoms: _385  and  _388
REMARK  162  A    between atoms: _388  and  _389
REMARK  163  A    between atoms: _389  and  _390
REMARK  164  A    between atoms: _390  and  _391
REMARK  165  A    between atoms: _391  and  _392
REMARK  166  A    between atoms: _396  and  _398
REMARK  167  A    between atoms: _398  and  _399
REMARK  168  A    between atoms: _398  and  _401
REMARK  169  A    between atoms: _401  and  _402
REMARK  170  A    between atoms: _402  and  _403
REMARK  171  A    between atoms: _405  and  _407
REMARK  172  A    between atoms: _407  and  _408
REMARK  173  A    between atoms: _407  and  _410
REMARK  174  A    between atoms: _410  and  _411
REMARK  175  A    between atoms: _414  and  _416
REMARK  176  A    between atoms: _416  and  _417
REMARK  177  A    between atoms: _419  and  _421
REMARK  178  A    between atoms: _421  and  _422
REMARK  179  A    between atoms: _424  and  _426
REMARK  180  A    between atoms: _426  and  _427
REMARK  181  A    between atoms: _426  and  _429
REMARK  182  A    between atoms: _429  and  _430
REMARK  183  A    between atoms: _433  and  _435
REMARK  184  A    between atoms: _435  and  _436
REMARK  185  A    between atoms: _438  and  _440
REMARK  186  A    between atoms: _440  and  _441
REMARK  187  A    between atoms: _443  and  _445
REMARK  188  A    between atoms: _445  and  _446
REMARK  189  A    between atoms: _445  and  _448
REMARK  190  A    between atoms: _448  and  _449
REMARK  191  A    between atoms: _455  and  _457
REMARK  192  A    between atoms: _457  and  _458
REMARK  193  A    between atoms: _457  and  _460
REMARK  194  A    between atoms: _460  and  _461
REMARK  195  A    between atoms: _464  and  _466
REMARK  196  A    between atoms: _466  and  _467
REMARK  197  A    between atoms: _466  and  _469
REMARK  198  A    between atoms: _472  and  _474
REMARK  199  A    between atoms: _474  and  _475
REMARK  200  A    between atoms: _474  and  _477
REMARK  201  A    between atoms: _477  and  _478
REMARK  202  A    between atoms: _481  and  _483
REMARK  203  A    between atoms: _483  and  _484
REMARK  204  A    between atoms: _483  and  _486
REMARK  205  A    between atoms: _486  and  _487
REMARK  206  A    between atoms: _491  and  _492
REMARK  207  A    between atoms: _497  and  _499
REMARK  208  A    between atoms: _499  and  _500
REMARK  209  A    between atoms: _499  and  _502
REMARK  210  A    between atoms: _505  and  _507
REMARK  211  A    between atoms: _507  and  _508
REMARK  212  A    between atoms: _507  and  _510
REMARK  213  A    between atoms: _510  and  _511
REMARK  214  A    between atoms: _516  and  _518
REMARK  215  A    between atoms: _518  and  _519
REMARK  216  A    between atoms: _518  and  _521
REMARK  217  A    between atoms: _521  and  _522
REMARK  218  A    between atoms: _525  and  _527
REMARK  219  A    between atoms: _527  and  _528
REMARK  220  A    between atoms: _527  and  _530
REMARK  221  A    between atoms: _530  and  _531
REMARK  222  A    between atoms: _534  and  _536
REMARK  223  A    between atoms: _536  and  _537
REMARK  224  A    between atoms: _539  and  _541
REMARK  225  A    between atoms: _541  and  _542
REMARK  226  A    between atoms: _541  and  _544
REMARK  227  A    between atoms: _544  and  _545
REMARK  228  A    between atoms: _545  and  _546
REMARK  229  A    between atoms: _546  and  _547
REMARK  230  A    between atoms: _556  and  _558
REMARK  231  A    between atoms: _558  and  _559
REMARK  232  A    between atoms: _558  and  _561
REMARK  233  A    between atoms: _561  and  _562
REMARK                            x       y       z     vdW  Elec       q    Type
REMARK                         _______ _______ _______ _____ _____    ______ ____
ROOT
ATOM      1  O   HOH     1       4.539  18.791  22.630  0.00  0.00    +0.000 OA
ENDROOT
TORSDOF 0
REMARK  Name = ../refined-set-2016/2z4o/2z4o_pocket.pdb
REMARK  233 active torsions:
REMARK  status: ('A' for Active; 'I' for Inactive)
REMARK    1  A    between atoms: _1  and  _3
REMARK    2  A    between atoms: _3  and  _4
REMARK    3  A    between atoms: _3  and  _6
REMARK    4  A    between atoms: _6  and  _7
REMARK    5  A    between atoms: _7  and  _8
REMARK    6  A    between atoms: _8  and  _9
REMARK    7  A    between atoms: _11  and  _15
REMARK    8  A    between atoms: _18  and  _20
REMARK    9  A    between atoms: _20  and  _21
REMARK   10  A    between atoms: _20  and  _23
REMARK   11  A    between atoms: _23  and  _24
REMARK   12  A    between atoms: _27  and  _29
REMARK   13  A    between atoms: _29  and  _30
REMARK   14  A    between atoms: _29  and  _32
REMARK   15  A    between atoms: _32  and  _33
REMARK   16  A    between atoms: _36  and  _38
REMARK   17  A    between atoms: _38  and  _39
REMARK   18  A    between atoms: _38  and  _41
REMARK   19  A    between atoms: _41  and  _42
REMARK   20  A    between atoms: _45  and  _47
REMARK   21  A    between atoms: _47  and  _48
REMARK   22  A    between atoms: _47  and  _50
REMARK   23  A    between atoms: _50  and  _51
REMARK   24  A    between atoms: _54  and  _56
REMARK   25  A    between atoms: _56  and  _57
REMARK   26  A    between atoms: _59  and  _61
REMARK   27  A    between atoms: _61  and  _62
REMARK   28  A    between atoms: _65  and  _67
REMARK   29  A    between atoms: _67  and  _68
REMARK   30  A    between atoms: _67  and  _70
REMARK   31  A    between atoms: _70  and  _71
REMARK   32  A    between atoms: _74  and  _76
REMARK   33  A    between atoms: _76  and  _77
REMARK   34  A    between atoms: _76  and  _79
REMARK   35  A    between atoms: _79  and  _80
REMARK   36  A    between atoms: _83  and  _85
REMARK   37  A    between atoms: _85  and  _86
REMARK   38  A    between atoms: _85  and  _88
REMARK   39  A    between atoms: _88  and  _89
REMARK   40  A    between atoms: _92  and  _94
REMARK   41  A    between atoms: _94  and  _95
REMARK   42  A    between atoms: _94  and  _97
REMARK   43  A    between atoms: _100  and  _102
REMARK   44  A    between atoms: _102  and  _103
REMARK   45  A    between atoms: _102  and  _105
REMARK   46  A    between atoms: _105  and  _106
REMARK   47  A    between atoms: _106  and  _107
REMARK   48  A    between atoms: _107  and  _108
REMARK   49  A    between atoms: _108  and  _109
REMARK   50  A    between atoms: _113  and  _115
REMARK   51  A    between atoms: _115  and  _116
REMARK   52  A    between atoms: _115  and  _118
REMARK   53  A    between atoms: _118  and  _119
REMARK   54  A    between atoms: _119  and  _120
REMARK   55  A    between atoms: _122  and  _124
REMARK   56  A    between atoms: _124  and  _125
REMARK   57  A    between atoms: _124  and  _127
REMARK   58  A    between atoms: _127  and  _128
REMARK   59  A    between atoms: _131  and  _133
REMARK   60  A    between atoms: _133  and  _134
REMARK   61  A    between atoms: _136  and  _138
REMARK   62  A    between atoms: _138  and  _139
REMARK   63  A    between atoms: _141  and  _143
REMARK   64  A    between atoms: _143  and  _144
REMARK   65  A    between atoms: _143  and  _146
REMARK   66  A    between atoms: _146  and  _147
REMARK   67  A    between atoms: _150  and  _152
REMARK   68  A    between atoms: _152  and  _153
REMARK   69  A    between atoms: _155  and  _157
REMARK   70  A    between atoms: _157  and  _158
REMARK   71  A    between atoms: _160  and  _162
REMARK   72  A    between atoms: _162  and  _163
REMARK   73  A    between atoms: _162  and  _165
REMARK   74  A    between atoms: _165  and  _166
REMARK   75  A    between atoms: _172  and  _174
REMARK   76  A    between atoms: _174  and  _175
REMARK   77  A    between atoms: _174  and  _177
REMARK   78  A    between atoms: _177  and  _178
REMARK   79  A    between atoms: _181  and  _183
REMARK   80  A    between atoms: _183  and  _184
REMARK   81  A    between atoms: _183  and  _186
REMARK   82  A    between atoms: _189  and  _191
REMARK   83  A    between atoms: _191  and  _192
REMARK   84  A    between atoms: _191  and  _194
REMARK   85  A    between atoms: _194  and  _195
REMARK   86  A    between atoms: _198  and  _200
REMARK   87  A    between atoms: _200  and  _201
REMARK   88  A    between atoms: _200  and  _203
REMARK   89  A    between atoms: _203  and  _204
REMARK   90  A    between atoms: _208  and  _209
REMARK   91  A    between atoms: _214  and  _216
REMARK   92  A    between atoms: _216  and  _217
REMARK   93  A    between atoms: _216  and  _219
REMARK   94  A    between atoms: _222  and  _224
REMARK   95  A    between atoms: _224  and  _225
REMARK   96  A    between atoms: _224  and  _227
REMARK   97  A    between atoms: _227  and  _228
REMARK   98  A    between atoms: _233  and  _235
REMARK   99  A    between atoms: _235  and  _236
REMARK  100  A    between atoms: _235  and  _238
REMARK  101  A    between atoms: _238  and  _239
REMARK  102  A    between atoms: _242  and  _244
REMARK  103  A    between atoms: _244  and  _245
REMARK  104  A    between atoms: _244  and  _247
REMARK  105  A    between atoms: _247  and  _248
REMARK  106  A    between atoms: _251  and  _253
REMARK  107  A    between atoms: _253  and  _254
REMARK  108  A    between atoms: _256  and  _258
REMARK  109  A    between atoms: _258  and  _259
REMARK  110  A    between atoms: _258  and  _261
REMARK  111  A    between atoms: _261  and  _262
REMARK  112  A    between atoms: _262  and  _263
REMARK  113  A    between atoms: _263  and  _264
REMARK  114  A    between atoms: _273  and  _275
REMARK  115  A    between atoms: _275  and  _276
REMARK  116  A    between atoms: _275  and  _278
REMARK  117  A    between atoms: _278  and  _279
REMARK  118  A    between atoms: _284  and  _286
REMARK  119  A    between atoms: _286  and  _287
REMARK  120  A    between atoms: _286  and  _289
REMARK  121  A    between atoms: _289  and  _290
REMARK  122  A    between atoms: _290  and  _291
REMARK  123  A    between atoms: _291  and  _292
REMARK  124  A    between atoms: _301  and  _303
REMARK  125  A    between atoms: _303  and  _304
REMARK  126  A    between atoms: _303  and  _306
REMARK  127  A    between atoms: _306  and  _307
REMARK  128  A    between atoms: _310  and  _312
REMARK  129  A    between atoms: _312  and  _313
REMARK  130  A    between atoms: _312  and  _315
REMARK  131  A    between atoms: _315  and  _316
REMARK  132  A    between atoms: _319  and  _321
REMARK  133  A    between atoms: _321  and  _322
REMARK  134  A    between atoms: _321  and  _324
REMARK  135  A    between atoms: _324  and  _325
REMARK  136  A    between atoms: _328  and  _330
REMARK  137  A    between atoms: _330  and  _331
REMARK  138  A    between atoms: _330  and  _333
REMARK  139  A    between atoms: _333  and  _334
REMARK  140  A    between atoms: _337  and  _339
REMARK  141  A    between atoms: _339  and  _340
REMARK  142  A    between atoms: _342  and  _344
REMARK  143  A    between atoms: _344  and  _345
REMARK  144  A    between atoms: _348  and  _350
REMARK  145  A    between atoms: _350  and  _351
REMARK  146  A    between atoms: _350  and  _353
REMARK  147  A    between atoms: _353  and  _354
REMARK  148  A    between atoms: _357  and  _359
REMARK  149  A    between atoms: _359  and  _360
REMARK  150  A    between atoms: _359  and  _362
REMARK  151  A    between atoms: _362  and  _363
REMARK  152  A    between atoms: _366  and  _368
REMARK  153  A    between atoms: _368  and  _369
REMARK  154  A    between atoms: _368  and  _371
REMARK  155  A    between atoms: _371  and  _372
REMARK  156  A    between atoms: _375  and  _377
REMARK  157  A    between atoms: _377  and  _378
REMARK  158  A    between atoms: _377  and  _380
REMARK  159  A    between atoms: _383  and  _385
REMARK  160  A    between atoms: _385  and  _386
REMARK  161  A    between atoms: _385  and  _388
REMARK  162  A    between atoms: _388  and  _389
REMARK  163  A    between atoms: _389  and  _390
REMARK  164  A    between atoms: _390  and  _391
REMARK  165  A    between atoms: _391  and  _392
REMARK  166  A    between atoms: _396  and  _398
REMARK  167  A    between atoms: _398  and  _399
REMARK  168  A    between atoms: _398  and  _401
REMARK  169  A    between atoms: _401  and  _402
REMARK  170  A    between atoms: _402  and  _403
REMARK  171  A    between atoms: _405  and  _407
REMARK  172  A    between atoms: _407  and  _408
REMARK  173  A    between atoms: _407  and  _410
REMARK  174  A    between atoms: _410  and  _411
REMARK  175  A    between atoms: _414  and  _416
REMARK  176  A    between atoms: _416  and  _417
REMARK  177  A    between atoms: _419  and  _421
REMARK  178  A    between atoms: _421  and  _422
REMARK  179  A    between atoms: _424  and  _426
REMARK  180  A    between atoms: _426  and  _427
REMARK  181  A    between atoms: _426  and  _429
REMARK  182  A    between atoms: _429  and  _430
REMARK  183  A    between atoms: _433  and  _435
REMARK  184  A    between atoms: _435  and  _436
REMARK  185  A    between atoms: _438  and  _440
REMARK  186  A    between atoms: _440  and  _441
REMARK  187  A    between atoms: _443  and  _445
REMARK  188  A    between atoms: _445  and  _446
REMARK  189  A    between atoms: _445  and  _448
REMARK  190  A    between atoms: _448  and  _449
REMARK  191  A    between atoms: _455  and  _457
REMARK  192  A    between atoms: _457  and  _458
REMARK  193  A    between atoms: _457  and  _460
REMARK  194  A    between atoms: _460  and  _461
REMARK  195  A    between atoms: _464  and  _466
REMARK  196  A    between atoms: _466  and  _467
REMARK  197  A    between atoms: _466  and  _469
REMARK  198  A    between atoms: _472  and  _474
REMARK  199  A    between atoms: _474  and  _475
REMARK  200  A    between atoms: _474  and  _477
REMARK  201  A    between atoms: _477  and  _478
REMARK  202  A    between atoms: _481  and  _483
REMARK  203  A    between atoms: _483  and  _484
REMARK  204  A    between atoms: _483  and  _486
REMARK  205  A    between atoms: _486  and  _487
REMARK  206  A    between atoms: _491  and  _492
REMARK  207  A    between atoms: _497  and  _499
REMARK  208  A    between atoms: _499  and  _500
REMARK  209  A    between atoms: _499  and  _502
REMARK  210  A    between atoms: _505  and  _507
REMARK  211  A    between atoms: _507  and  _508
REMARK  212  A    between atoms: _507  and  _510
REMARK  213  A    between atoms: _510  and  _511
REMARK  214  A    between atoms: _516  and  _518
REMARK  215  A    between atoms: _518  and  _519
REMARK  216  A    between atoms: _518  and  _521
REMARK  217  A    between atoms: _521  and  _522
REMARK  218  A    between atoms: _525  and  _527
REMARK  219  A    between atoms: _527  and  _528
REMARK  220  A    between atoms: _527  and  _530
REMARK  221  A    between atoms: _530  and  _531
REMARK  222  A    between atoms: _534  and  _536
REMARK  223  A    between atoms: _536  and  _537
REMARK  224  A    between atoms: _539  and  _541
REMARK  225  A    between atoms: _541  and  _542
REMARK  226  A    between atoms: _541  and  _544
REMARK  227  A    between atoms: _544  and  _545
REMARK  228  A    between atoms: _545  and  _546
REMARK  229  A    between atoms: _546  and  _547
REMARK  230  A    between atoms: _556  and  _558
REMARK  231  A    between atoms: _558  and  _559
REMARK  232  A    between atoms: _558  and  _561
REMARK  233  A    between atoms: _561  and  _562
REMARK                            x       y       z     vdW  Elec       q    Type
REMARK                         _______ _______ _______ _____ _____    ______ ____
ROOT
ATOM      1  O   HOH     1       7.527  15.630  25.322  0.00  0.00    +0.000 OA
ENDROOT
TORSDOF 0
REMARK  Name = ../refined-set-2016/2z4o/2z4o_pocket.pdb
REMARK  233 active torsions:
REMARK  status: ('A' for Active; 'I' for Inactive)
REMARK    1  A    between atoms: _1  and  _3
REMARK    2  A    between atoms: _3  and  _4
REMARK    3  A    between atoms: _3  and  _6
REMARK    4  A    between atoms: _6  and  _7
REMARK    5  A    between atoms: _7  and  _8
REMARK    6  A    between atoms: _8  and  _9
REMARK    7  A    between atoms: _11  and  _15
REMARK    8  A    between atoms: _18  and  _20
REMARK    9  A    between atoms: _20  and  _21
REMARK   10  A    between atoms: _20  and  _23
REMARK   11  A    between atoms: _23  and  _24
REMARK   12  A    between atoms: _27  and  _29
REMARK   13  A    between atoms: _29  and  _30
REMARK   14  A    between atoms: _29  and  _32
REMARK   15  A    between atoms: _32  and  _33
REMARK   16  A    between atoms: _36  and  _38
REMARK   17  A    between atoms: _38  and  _39
REMARK   18  A    between atoms: _38  and  _41
REMARK   19  A    between atoms: _41  and  _42
REMARK   20  A    between atoms: _45  and  _47
REMARK   21  A    between atoms: _47  and  _48
REMARK   22  A    between atoms: _47  and  _50
REMARK   23  A    between atoms: _50  and  _51
REMARK   24  A    between atoms: _54  and  _56
REMARK   25  A    between atoms: _56  and  _57
REMARK   26  A    between atoms: _59  and  _61
REMARK   27  A    between atoms: _61  and  _62
REMARK   28  A    between atoms: _65  and  _67
REMARK   29  A    between atoms: _67  and  _68
REMARK   30  A    between atoms: _67  and  _70
REMARK   31  A    between atoms: _70  and  _71
REMARK   32  A    between atoms: _74  and  _76
REMARK   33  A    between atoms: _76  and  _77
REMARK   34  A    between atoms: _76  and  _79
REMARK   35  A    between atoms: _79  and  _80
REMARK   36  A    between atoms: _83  and  _85
REMARK   37  A    between atoms: _85  and  _86
REMARK   38  A    between atoms: _85  and  _88
REMARK   39  A    between atoms: _88  and  _89
REMARK   40  A    between atoms: _92  and  _94
REMARK   41  A    between atoms: _94  and  _95
REMARK   42  A    between atoms: _94  and  _97
REMARK   43  A    between atoms: _100  and  _102
REMARK   44  A    between atoms: _102  and  _103
REMARK   45  A    between atoms: _102  and  _105
REMARK   46  A    between atoms: _105  and  _106
REMARK   47  A    between atoms: _106  and  _107
REMARK   48  A    between atoms: _107  and  _108
REMARK   49  A    between atoms: _108  and  _109
REMARK   50  A    between atoms: _113  and  _115
REMARK   51  A    between atoms: _115  and  _116
REMARK   52  A    between atoms: _115  and  _118
REMARK   53  A    between atoms: _118  and  _119
REMARK   54  A    between atoms: _119  and  _120
REMARK   55  A    between atoms: _122  and  _124
REMARK   56  A    between atoms: _124  and  _125
REMARK   57  A    between atoms: _124  and  _127
REMARK   58  A    between atoms: _127  and  _128
REMARK   59  A    between atoms: _131  and  _133
REMARK   60  A    between atoms: _133  and  _134
REMARK   61  A    between atoms: _136  and  _138
REMARK   62  A    between atoms: _138  and  _139
REMARK   63  A    between atoms: _141  and  _143
REMARK   64  A    between atoms: _143  and  _144
REMARK   65  A    between atoms: _143  and  _146
REMARK   66  A    between atoms: _146  and  _147
REMARK   67  A    between atoms: _150  and  _152
REMARK   68  A    between atoms: _152  and  _153
REMARK   69  A    between atoms: _155  and  _157
REMARK   70  A    between atoms: _157  and  _158
REMARK   71  A    between atoms: _160  and  _162
REMARK   72  A    between atoms: _162  and  _163
REMARK   73  A    between atoms: _162  and  _165
REMARK   74  A    between atoms: _165  and  _166
REMARK   75  A    between atoms: _172  and  _174
REMARK   76  A    between atoms: _174  and  _175
REMARK   77  A    between atoms: _174  and  _177
REMARK   78  A    between atoms: _177  and  _178
REMARK   79  A    between atoms: _181  and  _183
REMARK   80  A    between atoms: _183  and  _184
REMARK   81  A    between atoms: _183  and  _186
REMARK   82  A    between atoms: _189  and  _191
REMARK   83  A    between atoms: _191  and  _192
REMARK   84  A    between atoms: _191  and  _194
REMARK   85  A    between atoms: _194  and  _195
REMARK   86  A    between atoms: _198  and  _200
REMARK   87  A    between atoms: _200  and  _201
REMARK   88  A    between atoms: _200  and  _203
REMARK   89  A    between atoms: _203  and  _204
REMARK   90  A    between atoms: _208  and  _209
REMARK   91  A    between atoms: _214  and  _216
REMARK   92  A    between atoms: _216  and  _217
REMARK   93  A    between atoms: _216  and  _219
REMARK   94  A    between atoms: _222  and  _224
REMARK   95  A    between atoms: _224  and  _225
REMARK   96  A    between atoms: _224  and  _227
REMARK   97  A    between atoms: _227  and  _228
REMARK   98  A    between atoms: _233  and  _235
REMARK   99  A    between atoms: _235  and  _236
REMARK  100  A    between atoms: _235  and  _238
REMARK  101  A    between atoms: _238  and  _239
REMARK  102  A    between atoms: _242  and  _244
REMARK  103  A    between atoms: _244  and  _245
REMARK  104  A    between atoms: _244  and  _247
REMARK  105  A    between atoms: _247  and  _248
REMARK  106  A    between atoms: _251  and  _253
REMARK  107  A    between atoms: _253  and  _254
REMARK  108  A    between atoms: _256  and  _258
REMARK  109  A    between atoms: _258  and  _259
REMARK  110  A    between atoms: _258  and  _261
REMARK  111  A    between atoms: _261  and  _262
REMARK  112  A    between atoms: _262  and  _263
REMARK  113  A    between atoms: _263  and  _264
REMARK  114  A    between atoms: _273  and  _275
REMARK  115  A    between atoms: _275  and  _276
REMARK  116  A    between atoms: _275  and  _278
REMARK  117  A    between atoms: _278  and  _279
REMARK  118  A    between atoms: _284  and  _286
REMARK  119  A    between atoms: _286  and  _287
REMARK  120  A    between atoms: _286  and  _289
REMARK  121  A    between atoms: _289  and  _290
REMARK  122  A    between atoms: _290  and  _291
REMARK  123  A    between atoms: _291  and  _292
REMARK  124  A    between atoms: _301  and  _303
REMARK  125  A    between atoms: _303  and  _304
REMARK  126  A    between atoms: _303  and  _306
REMARK  127  A    between atoms: _306  and  _307
REMARK  128  A    between atoms: _310  and  _312
REMARK  129  A    between atoms: _312  and  _313
REMARK  130  A    between atoms: _312  and  _315
REMARK  131  A    between atoms: _315  and  _316
REMARK  132  A    between atoms: _319  and  _321
REMARK  133  A    between atoms: _321  and  _322
REMARK  134  A    between atoms: _321  and  _324
REMARK  135  A    between atoms: _324  and  _325
REMARK  136  A    between atoms: _328  and  _330
REMARK  137  A    between atoms: _330  and  _331
REMARK  138  A    between atoms: _330  and  _333
REMARK  139  A    between atoms: _333  and  _334
REMARK  140  A    between atoms: _337  and  _339
REMARK  141  A    between atoms: _339  and  _340
REMARK  142  A    between atoms: _342  and  _344
REMARK  143  A    between atoms: _344  and  _345
REMARK  144  A    between atoms: _348  and  _350
REMARK  145  A    between atoms: _350  and  _351
REMARK  146  A    between atoms: _350  and  _353
REMARK  147  A    between atoms: _353  and  _354
REMARK  148  A    between atoms: _357  and  _359
REMARK  149  A    between atoms: _359  and  _360
REMARK  150  A    between atoms: _359  and  _362
REMARK  151  A    between atoms: _362  and  _363
REMARK  152  A    between atoms: _366  and  _368
REMARK  153  A    between atoms: _368  and  _369
REMARK  154  A    between atoms: _368  and  _371
REMARK  155  A    between atoms: _371  and  _372
REMARK  156  A    between atoms: _375  and  _377
REMARK  157  A    between atoms: _377  and  _378
REMARK  158  A    between atoms: _377  and  _380
REMARK  159  A    between atoms: _383  and  _385
REMARK  160  A    between atoms: _385  and  _386
REMARK  161  A    between atoms: _385  and  _388
REMARK  162  A    between atoms: _388  and  _389
REMARK  163  A    between atoms: _389  and  _390
REMARK  164  A    between atoms: _390  and  _391
REMARK  165  A    between atoms: _391  and  _392
REMARK  166  A    between atoms: _396  and  _398
REMARK  167  A    between atoms: _398  and  _399
REMARK  168  A    between atoms: _398  and  _401
REMARK  169  A    between atoms: _401  and  _402
REMARK  170  A    between atoms: _402  and  _403
REMARK  171  A    between atoms: _405  and  _407
REMARK  172  A    between atoms: _407  and  _408
REMARK  173  A    between atoms: _407  and  _410
REMARK  174  A    between atoms: _410  and  _411
REMARK  175  A    between atoms: _414  and  _416
REMARK  176  A    between atoms: _416  and  _417
REMARK  177  A    between atoms: _419  and  _421
REMARK  178  A    between atoms: _421  and  _422
REMARK  179  A    between atoms: _424  and  _426
REMARK  180  A    between atoms: _426  and  _427
REMARK  181  A    between atoms: _426  and  _429
REMARK  182  A    between atoms: _429  and  _430
REMARK  183  A    between atoms: _433  and  _435
REMARK  184  A    between atoms: _435  and  _436
REMARK  185  A    between atoms: _438  and  _440
REMARK  186  A    between atoms: _440  and  _441
REMARK  187  A    between atoms: _443  and  _445
REMARK  188  A    between atoms: _445  and  _446
REMARK  189  A    between atoms: _445  and  _448
REMARK  190  A    between atoms: _448  and  _449
REMARK  191  A    between atoms: _455  and  _457
REMARK  192  A    between atoms: _457  and  _458
REMARK  193  A    between atoms: _457  and  _460
REMARK  194  A    between atoms: _460  and  _461
REMARK  195  A    between atoms: _464  and  _466
REMARK  196  A    between atoms: _466  and  _467
REMARK  197  A    between atoms: _466  and  _469
REMARK  198  A    between atoms: _472  and  _474
REMARK  199  A    between atoms: _474  and  _475
REMARK  200  A    between atoms: _474  and  _477
REMARK  201  A    between atoms: _477  and  _478
REMARK  202  A    between atoms: _481  and  _483
REMARK  203  A    between atoms: _483  and  _484
REMARK  204  A    between atoms: _483  and  _486
REMARK  205  A    between atoms: _486  and  _487
REMARK  206  A    between atoms: _491  and  _492
REMARK  207  A    between atoms: _497  and  _499
REMARK  208  A    between atoms: _499  and  _500
REMARK  209  A    between atoms: _499  and  _502
REMARK  210  A    between atoms: _505  and  _507
REMARK  211  A    between atoms: _507  and  _508
REMARK  212  A    between atoms: _507  and  _510
REMARK  213  A    between atoms: _510  and  _511
REMARK  214  A    between atoms: _516  and  _518
REMARK  215  A    between atoms: _518  and  _519
REMARK  216  A    between atoms: _518  and  _521
REMARK  217  A    between atoms: _521  and  _522
REMARK  218  A    between atoms: _525  and  _527
REMARK  219  A    between atoms: _527  and  _528
REMARK  220  A    between atoms: _527  and  _530
REMARK  221  A    between atoms: _530  and  _531
REMARK  222  A    between atoms: _534  and  _536
REMARK  223  A    between atoms: _536  and  _537
REMARK  224  A    between atoms: _539  and  _541
REMARK  225  A    between atoms: _541  and  _542
REMARK  226  A    between atoms: _541  and  _544
REMARK  227  A    between atoms: _544  and  _545
REMARK  228  A    between atoms: _545  and  _546
REMARK  229  A    between atoms: _546  and  _547
REMARK  230  A    between atoms: _556  and  _558
REMARK  231  A    between atoms: _558  and  _559
REMARK  232  A    between atoms: _558  and  _561
REMARK  233  A    between atoms: _561  and  _562
REMARK                            x       y       z     vdW  Elec       q    Type
REMARK                         _______ _______ _______ _____ _____    ______ ____
ROOT
ATOM      1  O   HOH     1      17.249  15.004   9.390  0.00  0.00    +0.000 OA
ENDROOT
TORSDOF 0
REMARK  Name = ../refined-set-2016/2z4o/2z4o_pocket.pdb
REMARK  233 active torsions:
REMARK  status: ('A' for Active; 'I' for Inactive)
REMARK    1  A    between atoms: _1  and  _3
REMARK    2  A    between atoms: _3  and  _4
REMARK    3  A    between atoms: _3  and  _6
REMARK    4  A    between atoms: _6  and  _7
REMARK    5  A    between atoms: _7  and  _8
REMARK    6  A    between atoms: _8  and  _9
REMARK    7  A    between atoms: _11  and  _15
REMARK    8  A    between atoms: _18  and  _20
REMARK    9  A    between atoms: _20  and  _21
REMARK   10  A    between atoms: _20  and  _23
REMARK   11  A    between atoms: _23  and  _24
REMARK   12  A    between atoms: _27  and  _29
REMARK   13  A    between atoms: _29  and  _30
REMARK   14  A    between atoms: _29  and  _32
REMARK   15  A    between atoms: _32  and  _33
REMARK   16  A    between atoms: _36  and  _38
REMARK   17  A    between atoms: _38  and  _39
REMARK   18  A    between atoms: _38  and  _41
REMARK   19  A    between atoms: _41  and  _42
REMARK   20  A    between atoms: _45  and  _47
REMARK   21  A    between atoms: _47  and  _48
REMARK   22  A    between atoms: _47  and  _50
REMARK   23  A    between atoms: _50  and  _51
REMARK   24  A    between atoms: _54  and  _56
REMARK   25  A    between atoms: _56  and  _57
REMARK   26  A    between atoms: _59  and  _61
REMARK   27  A    between atoms: _61  and  _62
REMARK   28  A    between atoms: _65  and  _67
REMARK   29  A    between atoms: _67  and  _68
REMARK   30  A    between atoms: _67  and  _70
REMARK   31  A    between atoms: _70  and  _71
REMARK   32  A    between atoms: _74  and  _76
REMARK   33  A    between atoms: _76  and  _77
REMARK   34  A    between atoms: _76  and  _79
REMARK   35  A    between atoms: _79  and  _80
REMARK   36  A    between atoms: _83  and  _85
REMARK   37  A    between atoms: _85  and  _86
REMARK   38  A    between atoms: _85  and  _88
REMARK   39  A    between atoms: _88  and  _89
REMARK   40  A    between atoms: _92  and  _94
REMARK   41  A    between atoms: _94  and  _95
REMARK   42  A    between atoms: _94  and  _97
REMARK   43  A    between atoms: _100  and  _102
REMARK   44  A    between atoms: _102  and  _103
REMARK   45  A    between atoms: _102  and  _105
REMARK   46  A    between atoms: _105  and  _106
REMARK   47  A    between atoms: _106  and  _107
REMARK   48  A    between atoms: _107  and  _108
REMARK   49  A    between atoms: _108  and  _109
REMARK   50  A    between atoms: _113  and  _115
REMARK   51  A    between atoms: _115  and  _116
REMARK   52  A    between atoms: _115  and  _118
REMARK   53  A    between atoms: _118  and  _119
REMARK   54  A    between atoms: _119  and  _120
REMARK   55  A    between atoms: _122  and  _124
REMARK   56  A    between atoms: _124  and  _125
REMARK   57  A    between atoms: _124  and  _127
REMARK   58  A    between atoms: _127  and  _128
REMARK   59  A    between atoms: _131  and  _133
REMARK   60  A    between atoms: _133  and  _134
REMARK   61  A    between atoms: _136  and  _138
REMARK   62  A    between atoms: _138  and  _139
REMARK   63  A    between atoms: _141  and  _143
REMARK   64  A    between atoms: _143  and  _144
REMARK   65  A    between atoms: _143  and  _146
REMARK   66  A    between atoms: _146  and  _147
REMARK   67  A    between atoms: _150  and  _152
REMARK   68  A    between atoms: _152  and  _153
REMARK   69  A    between atoms: _155  and  _157
REMARK   70  A    between atoms: _157  and  _158
REMARK   71  A    between atoms: _160  and  _162
REMARK   72  A    between atoms: _162  and  _163
REMARK   73  A    between atoms: _162  and  _165
REMARK   74  A    between atoms: _165  and  _166
REMARK   75  A    between atoms: _172  and  _174
REMARK   76  A    between atoms: _174  and  _175
REMARK   77  A    between atoms: _174  and  _177
REMARK   78  A    between atoms: _177  and  _178
REMARK   79  A    between atoms: _181  and  _183
REMARK   80  A    between atoms: _183  and  _184
REMARK   81  A    between atoms: _183  and  _186
REMARK   82  A    between atoms: _189  and  _191
REMARK   83  A    between atoms: _191  and  _192
REMARK   84  A    between atoms: _191  and  _194
REMARK   85  A    between atoms: _194  and  _195
REMARK   86  A    between atoms: _198  and  _200
REMARK   87  A    between atoms: _200  and  _201
REMARK   88  A    between atoms: _200  and  _203
REMARK   89  A    between atoms: _203  and  _204
REMARK   90  A    between atoms: _208  and  _209
REMARK   91  A    between atoms: _214  and  _216
REMARK   92  A    between atoms: _216  and  _217
REMARK   93  A    between atoms: _216  and  _219
REMARK   94  A    between atoms: _222  and  _224
REMARK   95  A    between atoms: _224  and  _225
REMARK   96  A    between atoms: _224  and  _227
REMARK   97  A    between atoms: _227  and  _228
REMARK   98  A    between atoms: _233  and  _235
REMARK   99  A    between atoms: _235  and  _236
REMARK  100  A    between atoms: _235  and  _238
REMARK  101  A    between atoms: _238  and  _239
REMARK  102  A    between atoms: _242  and  _244
REMARK  103  A    between atoms: _244  and  _245
REMARK  104  A    between atoms: _244  and  _247
REMARK  105  A    between atoms: _247  and  _248
REMARK  106  A    between atoms: _251  and  _253
REMARK  107  A    between atoms: _253  and  _254
REMARK  108  A    between atoms: _256  and  _258
REMARK  109  A    between atoms: _258  and  _259
REMARK  110  A    between atoms: _258  and  _261
REMARK  111  A    between atoms: _261  and  _262
REMARK  112  A    between atoms: _262  and  _263
REMARK  113  A    between atoms: _263  and  _264
REMARK  114  A    between atoms: _273  and  _275
REMARK  115  A    between atoms: _275  and  _276
REMARK  116  A    between atoms: _275  and  _278
REMARK  117  A    between atoms: _278  and  _279
REMARK  118  A    between atoms: _284  and  _286
REMARK  119  A    between atoms: _286  and  _287
REMARK  120  A    between atoms: _286  and  _289
REMARK  121  A    between atoms: _289  and  _290
REMARK  122  A    between atoms: _290  and  _291
REMARK  123  A    between atoms: _291  and  _292
REMARK  124  A    between atoms: _301  and  _303
REMARK  125  A    between atoms: _303  and  _304
REMARK  126  A    between atoms: _303  and  _306
REMARK  127  A    between atoms: _306  and  _307
REMARK  128  A    between atoms: _310  and  _312
REMARK  129  A    between atoms: _312  and  _313
REMARK  130  A    between atoms: _312  and  _315
REMARK  131  A    between atoms: _315  and  _316
REMARK  132  A    between atoms: _319  and  _321
REMARK  133  A    between atoms: _321  and  _322
REMARK  134  A    between atoms: _321  and  _324
REMARK  135  A    between atoms: _324  and  _325
REMARK  136  A    between atoms: _328  and  _330
REMARK  137  A    between atoms: _330  and  _331
REMARK  138  A    between atoms: _330  and  _333
REMARK  139  A    between atoms: _333  and  _334
REMARK  140  A    between atoms: _337  and  _339
REMARK  141  A    between atoms: _339  and  _340
REMARK  142  A    between atoms: _342  and  _344
REMARK  143  A    between atoms: _344  and  _345
REMARK  144  A    between atoms: _348  and  _350
REMARK  145  A    between atoms: _350  and  _351
REMARK  146  A    between atoms: _350  and  _353
REMARK  147  A    between atoms: _353  and  _354
REMARK  148  A    between atoms: _357  and  _359
REMARK  149  A    between atoms: _359  and  _360
REMARK  150  A    between atoms: _359  and  _362
REMARK  151  A    between atoms: _362  and  _363
REMARK  152  A    between atoms: _366  and  _368
REMARK  153  A    between atoms: _368  and  _369
REMARK  154  A    between atoms: _368  and  _371
REMARK  155  A    between atoms: _371  and  _372
REMARK  156  A    between atoms: _375  and  _377
REMARK  157  A    between atoms: _377  and  _378
REMARK  158  A    between atoms: _377  and  _380
REMARK  159  A    between atoms: _383  and  _385
REMARK  160  A    between atoms: _385  and  _386
REMARK  161  A    between atoms: _385  and  _388
REMARK  162  A    between atoms: _388  and  _389
REMARK  163  A    between atoms: _389  and  _390
REMARK  164  A    between atoms: _390  and  _391
REMARK  165  A    between atoms: _391  and  _392
REMARK  166  A    between atoms: _396  and  _398
REMARK  167  A    between atoms: _398  and  _399
REMARK  168  A    between atoms: _398  and  _401
REMARK  169  A    between atoms: _401  and  _402
REMARK  170  A    between atoms: _402  and  _403
REMARK  171  A    between atoms: _405  and  _407
REMARK  172  A    between atoms: _407  and  _408
REMARK  173  A    between atoms: _407  and  _410
REMARK  174  A    between atoms: _410  and  _411
REMARK  175  A    between atoms: _414  and  _416
REMARK  176  A    between atoms: _416  and  _417
REMARK  177  A    between atoms: _419  and  _421
REMARK  178  A    between atoms: _421  and  _422
REMARK  179  A    between atoms: _424  and  _426
REMARK  180  A    between atoms: _426  and  _427
REMARK  181  A    between atoms: _426  and  _429
REMARK  182  A    between atoms: _429  and  _430
REMARK  183  A    between atoms: _433  and  _435
REMARK  184  A    between atoms: _435  and  _436
REMARK  185  A    between atoms: _438  and  _440
REMARK  186  A    between atoms: _440  and  _441
REMARK  187  A    between atoms: _443  and  _445
REMARK  188  A    between atoms: _445  and  _446
REMARK  189  A    between atoms: _445  and  _448
REMARK  190  A    between atoms: _448  and  _449
REMARK  191  A    between atoms: _455  and  _457
REMARK  192  A    between atoms: _457  and  _458
REMARK  193  A    between atoms: _457  and  _460
REMARK  194  A    between atoms: _460  and  _461
REMARK  195  A    between atoms: _464  and  _466
REMARK  196  A    between atoms: _466  and  _467
REMARK  197  A    between atoms: _466  and  _469
REMARK  198  A    between atoms: _472  and  _474
REMARK  199  A    between atoms: _474  and  _475
REMARK  200  A    between atoms: _474  and  _477
REMARK  201  A    between atoms: _477  and  _478
REMARK  202  A    between atoms: _481  and  _483
REMARK  203  A    between atoms: _483  and  _484
REMARK  204  A    between atoms: _483  and  _486
REMARK  205  A    between atoms: _486  and  _487
REMARK  206  A    between atoms: _491  and  _492
REMARK  207  A    between atoms: _497  and  _499
REMARK  208  A    between atoms: _499  and  _500
REMARK  209  A    between atoms: _499  and  _502
REMARK  210  A    between atoms: _505  and  _507
REMARK  211  A    between atoms: _507  and  _508
REMARK  212  A    between atoms: _507  and  _510
REMARK  213  A    between atoms: _510  and  _511
REMARK  214  A    between atoms: _516  and  _518
REMARK  215  A    between atoms: _518  and  _519
REMARK  216  A    between atoms: _518  and  _521
REMARK  217  A    between atoms: _521  and  _522
REMARK  218  A    between atoms: _525  and  _527
REMARK  219  A    between atoms: _527  and  _528
REMARK  220  A    between atoms: _527  and  _530
REMARK  221  A    between atoms: _530  and  _531
REMARK  222  A    between atoms: _534  and  _536
REMARK  223  A    between atoms: _536  and  _537
REMARK  224  A    between atoms: _539  and  _541
REMARK  225  A    between atoms: _541  and  _542
REMARK  226  A    between atoms: _541  and  _544
REMARK  227  A    between atoms: _544  and  _545
REMARK  228  A    between atoms: _545  and  _546
REMARK  229  A    between atoms: _546  and  _547
REMARK  230  A    between atoms: _556  and  _558
REMARK  231  A    between atoms: _558  and  _559
REMARK  232  A    between atoms: _558  and  _561
REMARK  233  A    between atoms: _561  and  _562
REMARK                            x       y       z     vdW  Elec       q    Type
REMARK                         _______ _______ _______ _____ _____    ______ ____
ROOT
ATOM      1  O   HOH     1       5.751  15.109  21.064  0.00  0.00    +0.000 OA
ENDROOT
TORSDOF 0
REMARK  Name = ../refined-set-2016/2z4o/2z4o_pocket.pdb
REMARK  233 active torsions:
REMARK  status: ('A' for Active; 'I' for Inactive)
REMARK    1  A    between atoms: _1  and  _3
REMARK    2  A    between atoms: _3  and  _4
REMARK    3  A    between atoms: _3  and  _6
REMARK    4  A    between atoms: _6  and  _7
REMARK    5  A    between atoms: _7  and  _8
REMARK    6  A    between atoms: _8  and  _9
REMARK    7  A    between atoms: _11  and  _15
REMARK    8  A    between atoms: _18  and  _20
REMARK    9  A    between atoms: _20  and  _21
REMARK   10  A    between atoms: _20  and  _23
REMARK   11  A    between atoms: _23  and  _24
REMARK   12  A    between atoms: _27  and  _29
REMARK   13  A    between atoms: _29  and  _30
REMARK   14  A    between atoms: _29  and  _32
REMARK   15  A    between atoms: _32  and  _33
REMARK   16  A    between atoms: _36  and  _38
REMARK   17  A    between atoms: _38  and  _39
REMARK   18  A    between atoms: _38  and  _41
REMARK   19  A    between atoms: _41  and  _42
REMARK   20  A    between atoms: _45  and  _47
REMARK   21  A    between atoms: _47  and  _48
REMARK   22  A    between atoms: _47  and  _50
REMARK   23  A    between atoms: _50  and  _51
REMARK   24  A    between atoms: _54  and  _56
REMARK   25  A    between atoms: _56  and  _57
REMARK   26  A    between atoms: _59  and  _61
REMARK   27  A    between atoms: _61  and  _62
REMARK   28  A    between atoms: _65  and  _67
REMARK   29  A    between atoms: _67  and  _68
REMARK   30  A    between atoms: _67  and  _70
REMARK   31  A    between atoms: _70  and  _71
REMARK   32  A    between atoms: _74  and  _76
REMARK   33  A    between atoms: _76  and  _77
REMARK   34  A    between atoms: _76  and  _79
REMARK   35  A    between atoms: _79  and  _80
REMARK   36  A    between atoms: _83  and  _85
REMARK   37  A    between atoms: _85  and  _86
REMARK   38  A    between atoms: _85  and  _88
REMARK   39  A    between atoms: _88  and  _89
REMARK   40  A    between atoms: _92  and  _94
REMARK   41  A    between atoms: _94  and  _95
REMARK   42  A    between atoms: _94  and  _97
REMARK   43  A    between atoms: _100  and  _102
REMARK   44  A    between atoms: _102  and  _103
REMARK   45  A    between atoms: _102  and  _105
REMARK   46  A    between atoms: _105  and  _106
REMARK   47  A    between atoms: _106  and  _107
REMARK   48  A    between atoms: _107  and  _108
REMARK   49  A    between atoms: _108  and  _109
REMARK   50  A    between atoms: _113  and  _115
REMARK   51  A    between atoms: _115  and  _116
REMARK   52  A    between atoms: _115  and  _118
REMARK   53  A    between atoms: _118  and  _119
REMARK   54  A    between atoms: _119  and  _120
REMARK   55  A    between atoms: _122  and  _124
REMARK   56  A    between atoms: _124  and  _125
REMARK   57  A    between atoms: _124  and  _127
REMARK   58  A    between atoms: _127  and  _128
REMARK   59  A    between atoms: _131  and  _133
REMARK   60  A    between atoms: _133  and  _134
REMARK   61  A    between atoms: _136  and  _138
REMARK   62  A    between atoms: _138  and  _139
REMARK   63  A    between atoms: _141  and  _143
REMARK   64  A    between atoms: _143  and  _144
REMARK   65  A    between atoms: _143  and  _146
REMARK   66  A    between atoms: _146  and  _147
REMARK   67  A    between atoms: _150  and  _152
REMARK   68  A    between atoms: _152  and  _153
REMARK   69  A    between atoms: _155  and  _157
REMARK   70  A    between atoms: _157  and  _158
REMARK   71  A    between atoms: _160  and  _162
REMARK   72  A    between atoms: _162  and  _163
REMARK   73  A    between atoms: _162  and  _165
REMARK   74  A    between atoms: _165  and  _166
REMARK   75  A    between atoms: _172  and  _174
REMARK   76  A    between atoms: _174  and  _175
REMARK   77  A    between atoms: _174  and  _177
REMARK   78  A    between atoms: _177  and  _178
REMARK   79  A    between atoms: _181  and  _183
REMARK   80  A    between atoms: _183  and  _184
REMARK   81  A    between atoms: _183  and  _186
REMARK   82  A    between atoms: _189  and  _191
REMARK   83  A    between atoms: _191  and  _192
REMARK   84  A    between atoms: _191  and  _194
REMARK   85  A    between atoms: _194  and  _195
REMARK   86  A    between atoms: _198  and  _200
REMARK   87  A    between atoms: _200  and  _201
REMARK   88  A    between atoms: _200  and  _203
REMARK   89  A    between atoms: _203  and  _204
REMARK   90  A    between atoms: _208  and  _209
REMARK   91  A    between atoms: _214  and  _216
REMARK   92  A    between atoms: _216  and  _217
REMARK   93  A    between atoms: _216  and  _219
REMARK   94  A    between atoms: _222  and  _224
REMARK   95  A    between atoms: _224  and  _225
REMARK   96  A    between atoms: _224  and  _227
REMARK   97  A    between atoms: _227  and  _228
REMARK   98  A    between atoms: _233  and  _235
REMARK   99  A    between atoms: _235  and  _236
REMARK  100  A    between atoms: _235  and  _238
REMARK  101  A    between atoms: _238  and  _239
REMARK  102  A    between atoms: _242  and  _244
REMARK  103  A    between atoms: _244  and  _245
REMARK  104  A    between atoms: _244  and  _247
REMARK  105  A    between atoms: _247  and  _248
REMARK  106  A    between atoms: _251  and  _253
REMARK  107  A    between atoms: _253  and  _254
REMARK  108  A    between atoms: _256  and  _258
REMARK  109  A    between atoms: _258  and  _259
REMARK  110  A    between atoms: _258  and  _261
REMARK  111  A    between atoms: _261  and  _262
REMARK  112  A    between atoms: _262  and  _263
REMARK  113  A    between atoms: _263  and  _264
REMARK  114  A    between atoms: _273  and  _275
REMARK  115  A    between atoms: _275  and  _276
REMARK  116  A    between atoms: _275  and  _278
REMARK  117  A    between atoms: _278  and  _279
REMARK  118  A    between atoms: _284  and  _286
REMARK  119  A    between atoms: _286  and  _287
REMARK  120  A    between atoms: _286  and  _289
REMARK  121  A    between atoms: _289  and  _290
REMARK  122  A    between atoms: _290  and  _291
REMARK  123  A    between atoms: _291  and  _292
REMARK  124  A    between atoms: _301  and  _303
REMARK  125  A    between atoms: _303  and  _304
REMARK  126  A    between atoms: _303  and  _306
REMARK  127  A    between atoms: _306  and  _307
REMARK  128  A    between atoms: _310  and  _312
REMARK  129  A    between atoms: _312  and  _313
REMARK  130  A    between atoms: _312  and  _315
REMARK  131  A    between atoms: _315  and  _316
REMARK  132  A    between atoms: _319  and  _321
REMARK  133  A    between atoms: _321  and  _322
REMARK  134  A    between atoms: _321  and  _324
REMARK  135  A    between atoms: _324  and  _325
REMARK  136  A    between atoms: _328  and  _330
REMARK  137  A    between atoms: _330  and  _331
REMARK  138  A    between atoms: _330  and  _333
REMARK  139  A    between atoms: _333  and  _334
REMARK  140  A    between atoms: _337  and  _339
REMARK  141  A    between atoms: _339  and  _340
REMARK  142  A    between atoms: _342  and  _344
REMARK  143  A    between atoms: _344  and  _345
REMARK  144  A    between atoms: _348  and  _350
REMARK  145  A    between atoms: _350  and  _351
REMARK  146  A    between atoms: _350  and  _353
REMARK  147  A    between atoms: _353  and  _354
REMARK  148  A    between atoms: _357  and  _359
REMARK  149  A    between atoms: _359  and  _360
REMARK  150  A    between atoms: _359  and  _362
REMARK  151  A    between atoms: _362  and  _363
REMARK  152  A    between atoms: _366  and  _368
REMARK  153  A    between atoms: _368  and  _369
REMARK  154  A    between atoms: _368  and  _371
REMARK  155  A    between atoms: _371  and  _372
REMARK  156  A    between atoms: _375  and  _377
REMARK  157  A    between atoms: _377  and  _378
REMARK  158  A    between atoms: _377  and  _380
REMARK  159  A    between atoms: _383  and  _385
REMARK  160  A    between atoms: _385  and  _386
REMARK  161  A    between atoms: _385  and  _388
REMARK  162  A    between atoms: _388  and  _389
REMARK  163  A    between atoms: _389  and  _390
REMARK  164  A    between atoms: _390  and  _391
REMARK  165  A    between atoms: _391  and  _392
REMARK  166  A    between atoms: _396  and  _398
REMARK  167  A    between atoms: _398  and  _399
REMARK  168  A    between atoms: _398  and  _401
REMARK  169  A    between atoms: _401  and  _402
REMARK  170  A    between atoms: _402  and  _403
REMARK  171  A    between atoms: _405  and  _407
REMARK  172  A    between atoms: _407  and  _408
REMARK  173  A    between atoms: _407  and  _410
REMARK  174  A    between atoms: _410  and  _411
REMARK  175  A    between atoms: _414  and  _416
REMARK  176  A    between atoms: _416  and  _417
REMARK  177  A    between atoms: _419  and  _421
REMARK  178  A    between atoms: _421  and  _422
REMARK  179  A    between atoms: _424  and  _426
REMARK  180  A    between atoms: _426  and  _427
REMARK  181  A    between atoms: _426  and  _429
REMARK  182  A    between atoms: _429  and  _430
REMARK  183  A    between atoms: _433  and  _435
REMARK  184  A    between atoms: _435  and  _436
REMARK  185  A    between atoms: _438  and  _440
REMARK  186  A    between atoms: _440  and  _441
REMARK  187  A    between atoms: _443  and  _445
REMARK  188  A    between atoms: _445  and  _446
REMARK  189  A    between atoms: _445  and  _448
REMARK  190  A    between atoms: _448  and  _449
REMARK  191  A    between atoms: _455  and  _457
REMARK  192  A    between atoms: _457  and  _458
REMARK  193  A    between atoms: _457  and  _460
REMARK  194  A    between atoms: _460  and  _461
REMARK  195  A    between atoms: _464  and  _466
REMARK  196  A    between atoms: _466  and  _467
REMARK  197  A    between atoms: _466  and  _469
REMARK  198  A    between atoms: _472  and  _474
REMARK  199  A    between atoms: _474  and  _475
REMARK  200  A    between atoms: _474  and  _477
REMARK  201  A    between atoms: _477  and  _478
REMARK  202  A    between atoms: _481  and  _483
REMARK  203  A    between atoms: _483  and  _484
REMARK  204  A    between atoms: _483  and  _486
REMARK  205  A    between atoms: _486  and  _487
REMARK  206  A    between atoms: _491  and  _492
REMARK  207  A    between atoms: _497  and  _499
REMARK  208  A    between atoms: _499  and  _500
REMARK  209  A    between atoms: _499  and  _502
REMARK  210  A    between atoms: _505  and  _507
REMARK  211  A    between atoms: _507  and  _508
REMARK  212  A    between atoms: _507  and  _510
REMARK  213  A    between atoms: _510  and  _511
REMARK  214  A    between atoms: _516  and  _518
REMARK  215  A    between atoms: _518  and  _519
REMARK  216  A    between atoms: _518  and  _521
REMARK  217  A    between atoms: _521  and  _522
REMARK  218  A    between atoms: _525  and  _527
REMARK  219  A    between atoms: _527  and  _528
REMARK  220  A    between atoms: _527  and  _530
REMARK  221  A    between atoms: _530  and  _531
REMARK  222  A    between atoms: _534  and  _536
REMARK  223  A    between atoms: _536  and  _537
REMARK  224  A    between atoms: _539  and  _541
REMARK  225  A    between atoms: _541  and  _542
REMARK  226  A    between atoms: _541  and  _544
REMARK  227  A    between atoms: _544  and  _545
REMARK  228  A    between atoms: _545  and  _546
REMARK  229  A    between atoms: _546  and  _547
REMARK  230  A    between atoms: _556  and  _558
REMARK  231  A    between atoms: _558  and  _559
REMARK  232  A    between atoms: _558  and  _561
REMARK  233  A    between atoms: _561  and  _562
REMARK                            x       y       z     vdW  Elec       q    Type
REMARK                         _______ _______ _______ _____ _____    ______ ____
ROOT
ATOM      1  O   HOH     1      24.652  27.651  18.084  0.00  0.00    +0.000 OA
ENDROOT
TORSDOF 0
REMARK  Name = ../refined-set-2016/2z4o/2z4o_pocket.pdb
REMARK  233 active torsions:
REMARK  status: ('A' for Active; 'I' for Inactive)
REMARK    1  A    between atoms: _1  and  _3
REMARK    2  A    between atoms: _3  and  _4
REMARK    3  A    between atoms: _3  and  _6
REMARK    4  A    between atoms: _6  and  _7
REMARK    5  A    between atoms: _7  and  _8
REMARK    6  A    between atoms: _8  and  _9
REMARK    7  A    between atoms: _11  and  _15
REMARK    8  A    between atoms: _18  and  _20
REMARK    9  A    between atoms: _20  and  _21
REMARK   10  A    between atoms: _20  and  _23
REMARK   11  A    between atoms: _23  and  _24
REMARK   12  A    between atoms: _27  and  _29
REMARK   13  A    between atoms: _29  and  _30
REMARK   14  A    between atoms: _29  and  _32
REMARK   15  A    between atoms: _32  and  _33
REMARK   16  A    between atoms: _36  and  _38
REMARK   17  A    between atoms: _38  and  _39
REMARK   18  A    between atoms: _38  and  _41
REMARK   19  A    between atoms: _41  and  _42
REMARK   20  A    between atoms: _45  and  _47
REMARK   21  A    between atoms: _47  and  _48
REMARK   22  A    between atoms: _47  and  _50
REMARK   23  A    between atoms: _50  and  _51
REMARK   24  A    between atoms: _54  and  _56
REMARK   25  A    between atoms: _56  and  _57
REMARK   26  A    between atoms: _59  and  _61
REMARK   27  A    between atoms: _61  and  _62
REMARK   28  A    between atoms: _65  and  _67
REMARK   29  A    between atoms: _67  and  _68
REMARK   30  A    between atoms: _67  and  _70
REMARK   31  A    between atoms: _70  and  _71
REMARK   32  A    between atoms: _74  and  _76
REMARK   33  A    between atoms: _76  and  _77
REMARK   34  A    between atoms: _76  and  _79
REMARK   35  A    between atoms: _79  and  _80
REMARK   36  A    between atoms: _83  and  _85
REMARK   37  A    between atoms: _85  and  _86
REMARK   38  A    between atoms: _85  and  _88
REMARK   39  A    between atoms: _88  and  _89
REMARK   40  A    between atoms: _92  and  _94
REMARK   41  A    between atoms: _94  and  _95
REMARK   42  A    between atoms: _94  and  _97
REMARK   43  A    between atoms: _100  and  _102
REMARK   44  A    between atoms: _102  and  _103
REMARK   45  A    between atoms: _102  and  _105
REMARK   46  A    between atoms: _105  and  _106
REMARK   47  A    between atoms: _106  and  _107
REMARK   48  A    between atoms: _107  and  _108
REMARK   49  A    between atoms: _108  and  _109
REMARK   50  A    between atoms: _113  and  _115
REMARK   51  A    between atoms: _115  and  _116
REMARK   52  A    between atoms: _115  and  _118
REMARK   53  A    between atoms: _118  and  _119
REMARK   54  A    between atoms: _119  and  _120
REMARK   55  A    between atoms: _122  and  _124
REMARK   56  A    between atoms: _124  and  _125
REMARK   57  A    between atoms: _124  and  _127
REMARK   58  A    between atoms: _127  and  _128
REMARK   59  A    between atoms: _131  and  _133
REMARK   60  A    between atoms: _133  and  _134
REMARK   61  A    between atoms: _136  and  _138
REMARK   62  A    between atoms: _138  and  _139
REMARK   63  A    between atoms: _141  and  _143
REMARK   64  A    between atoms: _143  and  _144
REMARK   65  A    between atoms: _143  and  _146
REMARK   66  A    between atoms: _146  and  _147
REMARK   67  A    between atoms: _150  and  _152
REMARK   68  A    between atoms: _152  and  _153
REMARK   69  A    between atoms: _155  and  _157
REMARK   70  A    between atoms: _157  and  _158
REMARK   71  A    between atoms: _160  and  _162
REMARK   72  A    between atoms: _162  and  _163
REMARK   73  A    between atoms: _162  and  _165
REMARK   74  A    between atoms: _165  and  _166
REMARK   75  A    between atoms: _172  and  _174
REMARK   76  A    between atoms: _174  and  _175
REMARK   77  A    between atoms: _174  and  _177
REMARK   78  A    between atoms: _177  and  _178
REMARK   79  A    between atoms: _181  and  _183
REMARK   80  A    between atoms: _183  and  _184
REMARK   81  A    between atoms: _183  and  _186
REMARK   82  A    between atoms: _189  and  _191
REMARK   83  A    between atoms: _191  and  _192
REMARK   84  A    between atoms: _191  and  _194
REMARK   85  A    between atoms: _194  and  _195
REMARK   86  A    between atoms: _198  and  _200
REMARK   87  A    between atoms: _200  and  _201
REMARK   88  A    between atoms: _200  and  _203
REMARK   89  A    between atoms: _203  and  _204
REMARK   90  A    between atoms: _208  and  _209
REMARK   91  A    between atoms: _214  and  _216
REMARK   92  A    between atoms: _216  and  _217
REMARK   93  A    between atoms: _216  and  _219
REMARK   94  A    between atoms: _222  and  _224
REMARK   95  A    between atoms: _224  and  _225
REMARK   96  A    between atoms: _224  and  _227
REMARK   97  A    between atoms: _227  and  _228
REMARK   98  A    between atoms: _233  and  _235
REMARK   99  A    between atoms: _235  and  _236
REMARK  100  A    between atoms: _235  and  _238
REMARK  101  A    between atoms: _238  and  _239
REMARK  102  A    between atoms: _242  and  _244
REMARK  103  A    between atoms: _244  and  _245
REMARK  104  A    between atoms: _244  and  _247
REMARK  105  A    between atoms: _247  and  _248
REMARK  106  A    between atoms: _251  and  _253
REMARK  107  A    between atoms: _253  and  _254
REMARK  108  A    between atoms: _256  and  _258
REMARK  109  A    between atoms: _258  and  _259
REMARK  110  A    between atoms: _258  and  _261
REMARK  111  A    between atoms: _261  and  _262
REMARK  112  A    between atoms: _262  and  _263
REMARK  113  A    between atoms: _263  and  _264
REMARK  114  A    between atoms: _273  and  _275
REMARK  115  A    between atoms: _275  and  _276
REMARK  116  A    between atoms: _275  and  _278
REMARK  117  A    between atoms: _278  and  _279
REMARK  118  A    between atoms: _284  and  _286
REMARK  119  A    between atoms: _286  and  _287
REMARK  120  A    between atoms: _286  and  _289
REMARK  121  A    between atoms: _289  and  _290
REMARK  122  A    between atoms: _290  and  _291
REMARK  123  A    between atoms: _291  and  _292
REMARK  124  A    between atoms: _301  and  _303
REMARK  125  A    between atoms: _303  and  _304
REMARK  126  A    between atoms: _303  and  _306
REMARK  127  A    between atoms: _306  and  _307
REMARK  128  A    between atoms: _310  and  _312
REMARK  129  A    between atoms: _312  and  _313
REMARK  130  A    between atoms: _312  and  _315
REMARK  131  A    between atoms: _315  and  _316
REMARK  132  A    between atoms: _319  and  _321
REMARK  133  A    between atoms: _321  and  _322
REMARK  134  A    between atoms: _321  and  _324
REMARK  135  A    between atoms: _324  and  _325
REMARK  136  A    between atoms: _328  and  _330
REMARK  137  A    between atoms: _330  and  _331
REMARK  138  A    between atoms: _330  and  _333
REMARK  139  A    between atoms: _333  and  _334
REMARK  140  A    between atoms: _337  and  _339
REMARK  141  A    between atoms: _339  and  _340
REMARK  142  A    between atoms: _342  and  _344
REMARK  143  A    between atoms: _344  and  _345
REMARK  144  A    between atoms: _348  and  _350
REMARK  145  A    between atoms: _350  and  _351
REMARK  146  A    between atoms: _350  and  _353
REMARK  147  A    between atoms: _353  and  _354
REMARK  148  A    between atoms: _357  and  _359
REMARK  149  A    between atoms: _359  and  _360
REMARK  150  A    between atoms: _359  and  _362
REMARK  151  A    between atoms: _362  and  _363
REMARK  152  A    between atoms: _366  and  _368
REMARK  153  A    between atoms: _368  and  _369
REMARK  154  A    between atoms: _368  and  _371
REMARK  155  A    between atoms: _371  and  _372
REMARK  156  A    between atoms: _375  and  _377
REMARK  157  A    between atoms: _377  and  _378
REMARK  158  A    between atoms: _377  and  _380
REMARK  159  A    between atoms: _383  and  _385
REMARK  160  A    between atoms: _385  and  _386
REMARK  161  A    between atoms: _385  and  _388
REMARK  162  A    between atoms: _388  and  _389
REMARK  163  A    between atoms: _389  and  _390
REMARK  164  A    between atoms: _390  and  _391
REMARK  165  A    between atoms: _391  and  _392
REMARK  166  A    between atoms: _396  and  _398
REMARK  167  A    between atoms: _398  and  _399
REMARK  168  A    between atoms: _398  and  _401
REMARK  169  A    between atoms: _401  and  _402
REMARK  170  A    between atoms: _402  and  _403
REMARK  171  A    between atoms: _405  and  _407
REMARK  172  A    between atoms: _407  and  _408
REMARK  173  A    between atoms: _407  and  _410
REMARK  174  A    between atoms: _410  and  _411
REMARK  175  A    between atoms: _414  and  _416
REMARK  176  A    between atoms: _416  and  _417
REMARK  177  A    between atoms: _419  and  _421
REMARK  178  A    between atoms: _421  and  _422
REMARK  179  A    between atoms: _424  and  _426
REMARK  180  A    between atoms: _426  and  _427
REMARK  181  A    between atoms: _426  and  _429
REMARK  182  A    between atoms: _429  and  _430
REMARK  183  A    between atoms: _433  and  _435
REMARK  184  A    between atoms: _435  and  _436
REMARK  185  A    between atoms: _438  and  _440
REMARK  186  A    between atoms: _440  and  _441
REMARK  187  A    between atoms: _443  and  _445
REMARK  188  A    between atoms: _445  and  _446
REMARK  189  A    between atoms: _445  and  _448
REMARK  190  A    between atoms: _448  and  _449
REMARK  191  A    between atoms: _455  and  _457
REMARK  192  A    between atoms: _457  and  _458
REMARK  193  A    between atoms: _457  and  _460
REMARK  194  A    between atoms: _460  and  _461
REMARK  195  A    between atoms: _464  and  _466
REMARK  196  A    between atoms: _466  and  _467
REMARK  197  A    between atoms: _466  and  _469
REMARK  198  A    between atoms: _472  and  _474
REMARK  199  A    between atoms: _474  and  _475
REMARK  200  A    between atoms: _474  and  _477
REMARK  201  A    between atoms: _477  and  _478
REMARK  202  A    between atoms: _481  and  _483
REMARK  203  A    between atoms: _483  and  _484
REMARK  204  A    between atoms: _483  and  _486
REMARK  205  A    between atoms: _486  and  _487
REMARK  206  A    between atoms: _491  and  _492
REMARK  207  A    between atoms: _497  and  _499
REMARK  208  A    between atoms: _499  and  _500
REMARK  209  A    between atoms: _499  and  _502
REMARK  210  A    between atoms: _505  and  _507
REMARK  211  A    between atoms: _507  and  _508
REMARK  212  A    between atoms: _507  and  _510
REMARK  213  A    between atoms: _510  and  _511
REMARK  214  A    between atoms: _516  and  _518
REMARK  215  A    between atoms: _518  and  _519
REMARK  216  A    between atoms: _518  and  _521
REMARK  217  A    between atoms: _521  and  _522
REMARK  218  A    between atoms: _525  and  _527
REMARK  219  A    between atoms: _527  and  _528
REMARK  220  A    between atoms: _527  and  _530
REMARK  221  A    between atoms: _530  and  _531
REMARK  222  A    between atoms: _534  and  _536
REMARK  223  A    between atoms: _536  and  _537
REMARK  224  A    between atoms: _539  and  _541
REMARK  225  A    between atoms: _541  and  _542
REMARK  226  A    between atoms: _541  and  _544
REMARK  227  A    between atoms: _544  and  _545
REMARK  228  A    between atoms: _545  and  _546
REMARK  229  A    between atoms: _546  and  _547
REMARK  230  A    between atoms: _556  and  _558
REMARK  231  A    between atoms: _558  and  _559
REMARK  232  A    between atoms: _558  and  _561
REMARK  233  A    between atoms: _561  and  _562
REMARK                            x       y       z     vdW  Elec       q    Type
REMARK                         _______ _______ _______ _____ _____    ______ ____
ROOT
ATOM      1  O   HOH     1      26.519  22.669  23.519  0.00  0.00    +0.000 OA
ENDROOT
TORSDOF 0
REMARK  Name = ../refined-set-2016/2z4o/2z4o_pocket.pdb
REMARK  233 active torsions:
REMARK  status: ('A' for Active; 'I' for Inactive)
REMARK    1  A    between atoms: _1  and  _3
REMARK    2  A    between atoms: _3  and  _4
REMARK    3  A    between atoms: _3  and  _6
REMARK    4  A    between atoms: _6  and  _7
REMARK    5  A    between atoms: _7  and  _8
REMARK    6  A    between atoms: _8  and  _9
REMARK    7  A    between atoms: _11  and  _15
REMARK    8  A    between atoms: _18  and  _20
REMARK    9  A    between atoms: _20  and  _21
REMARK   10  A    between atoms: _20  and  _23
REMARK   11  A    between atoms: _23  and  _24
REMARK   12  A    between atoms: _27  and  _29
REMARK   13  A    between atoms: _29  and  _30
REMARK   14  A    between atoms: _29  and  _32
REMARK   15  A    between atoms: _32  and  _33
REMARK   16  A    between atoms: _36  and  _38
REMARK   17  A    between atoms: _38  and  _39
REMARK   18  A    between atoms: _38  and  _41
REMARK   19  A    between atoms: _41  and  _42
REMARK   20  A    between atoms: _45  and  _47
REMARK   21  A    between atoms: _47  and  _48
REMARK   22  A    between atoms: _47  and  _50
REMARK   23  A    between atoms: _50  and  _51
REMARK   24  A    between atoms: _54  and  _56
REMARK   25  A    between atoms: _56  and  _57
REMARK   26  A    between atoms: _59  and  _61
REMARK   27  A    between atoms: _61  and  _62
REMARK   28  A    between atoms: _65  and  _67
REMARK   29  A    between atoms: _67  and  _68
REMARK   30  A    between atoms: _67  and  _70
REMARK   31  A    between atoms: _70  and  _71
REMARK   32  A    between atoms: _74  and  _76
REMARK   33  A    between atoms: _76  and  _77
REMARK   34  A    between atoms: _76  and  _79
REMARK   35  A    between atoms: _79  and  _80
REMARK   36  A    between atoms: _83  and  _85
REMARK   37  A    between atoms: _85  and  _86
REMARK   38  A    between atoms: _85  and  _88
REMARK   39  A    between atoms: _88  and  _89
REMARK   40  A    between atoms: _92  and  _94
REMARK   41  A    between atoms: _94  and  _95
REMARK   42  A    between atoms: _94  and  _97
REMARK   43  A    between atoms: _100  and  _102
REMARK   44  A    between atoms: _102  and  _103
REMARK   45  A    between atoms: _102  and  _105
REMARK   46  A    between atoms: _105  and  _106
REMARK   47  A    between atoms: _106  and  _107
REMARK   48  A    between atoms: _107  and  _108
REMARK   49  A    between atoms: _108  and  _109
REMARK   50  A    between atoms: _113  and  _115
REMARK   51  A    between atoms: _115  and  _116
REMARK   52  A    between atoms: _115  and  _118
REMARK   53  A    between atoms: _118  and  _119
REMARK   54  A    between atoms: _119  and  _120
REMARK   55  A    between atoms: _122  and  _124
REMARK   56  A    between atoms: _124  and  _125
REMARK   57  A    between atoms: _124  and  _127
REMARK   58  A    between atoms: _127  and  _128
REMARK   59  A    between atoms: _131  and  _133
REMARK   60  A    between atoms: _133  and  _134
REMARK   61  A    between atoms: _136  and  _138
REMARK   62  A    between atoms: _138  and  _139
REMARK   63  A    between atoms: _141  and  _143
REMARK   64  A    between atoms: _143  and  _144
REMARK   65  A    between atoms: _143  and  _146
REMARK   66  A    between atoms: _146  and  _147
REMARK   67  A    between atoms: _150  and  _152
REMARK   68  A    between atoms: _152  and  _153
REMARK   69  A    between atoms: _155  and  _157
REMARK   70  A    between atoms: _157  and  _158
REMARK   71  A    between atoms: _160  and  _162
REMARK   72  A    between atoms: _162  and  _163
REMARK   73  A    between atoms: _162  and  _165
REMARK   74  A    between atoms: _165  and  _166
REMARK   75  A    between atoms: _172  and  _174
REMARK   76  A    between atoms: _174  and  _175
REMARK   77  A    between atoms: _174  and  _177
REMARK   78  A    between atoms: _177  and  _178
REMARK   79  A    between atoms: _181  and  _183
REMARK   80  A    between atoms: _183  and  _184
REMARK   81  A    between atoms: _183  and  _186
REMARK   82  A    between atoms: _189  and  _191
REMARK   83  A    between atoms: _191  and  _192
REMARK   84  A    between atoms: _191  and  _194
REMARK   85  A    between atoms: _194  and  _195
REMARK   86  A    between atoms: _198  and  _200
REMARK   87  A    between atoms: _200  and  _201
REMARK   88  A    between atoms: _200  and  _203
REMARK   89  A    between atoms: _203  and  _204
REMARK   90  A    between atoms: _208  and  _209
REMARK   91  A    between atoms: _214  and  _216
REMARK   92  A    between atoms: _216  and  _217
REMARK   93  A    between atoms: _216  and  _219
REMARK   94  A    between atoms: _222  and  _224
REMARK   95  A    between atoms: _224  and  _225
REMARK   96  A    between atoms: _224  and  _227
REMARK   97  A    between atoms: _227  and  _228
REMARK   98  A    between atoms: _233  and  _235
REMARK   99  A    between atoms: _235  and  _236
REMARK  100  A    between atoms: _235  and  _238
REMARK  101  A    between atoms: _238  and  _239
REMARK  102  A    between atoms: _242  and  _244
REMARK  103  A    between atoms: _244  and  _245
REMARK  104  A    between atoms: _244  and  _247
REMARK  105  A    between atoms: _247  and  _248
REMARK  106  A    between atoms: _251  and  _253
REMARK  107  A    between atoms: _253  and  _254
REMARK  108  A    between atoms: _256  and  _258
REMARK  109  A    between atoms: _258  and  _259
REMARK  110  A    between atoms: _258  and  _261
REMARK  111  A    between atoms: _261  and  _262
REMARK  112  A    between atoms: _262  and  _263
REMARK  113  A    between atoms: _263  and  _264
REMARK  114  A    between atoms: _273  and  _275
REMARK  115  A    between atoms: _275  and  _276
REMARK  116  A    between atoms: _275  and  _278
REMARK  117  A    between atoms: _278  and  _279
REMARK  118  A    between atoms: _284  and  _286
REMARK  119  A    between atoms: _286  and  _287
REMARK  120  A    between atoms: _286  and  _289
REMARK  121  A    between atoms: _289  and  _290
REMARK  122  A    between atoms: _290  and  _291
REMARK  123  A    between atoms: _291  and  _292
REMARK  124  A    between atoms: _301  and  _303
REMARK  125  A    between atoms: _303  and  _304
REMARK  126  A    between atoms: _303  and  _306
REMARK  127  A    between atoms: _306  and  _307
REMARK  128  A    between atoms: _310  and  _312
REMARK  129  A    between atoms: _312  and  _313
REMARK  130  A    between atoms: _312  and  _315
REMARK  131  A    between atoms: _315  and  _316
REMARK  132  A    between atoms: _319  and  _321
REMARK  133  A    between atoms: _321  and  _322
REMARK  134  A    between atoms: _321  and  _324
REMARK  135  A    between atoms: _324  and  _325
REMARK  136  A    between atoms: _328  and  _330
REMARK  137  A    between atoms: _330  and  _331
REMARK  138  A    between atoms: _330  and  _333
REMARK  139  A    between atoms: _333  and  _334
REMARK  140  A    between atoms: _337  and  _339
REMARK  141  A    between atoms: _339  and  _340
REMARK  142  A    between atoms: _342  and  _344
REMARK  143  A    between atoms: _344  and  _345
REMARK  144  A    between atoms: _348  and  _350
REMARK  145  A    between atoms: _350  and  _351
REMARK  146  A    between atoms: _350  and  _353
REMARK  147  A    between atoms: _353  and  _354
REMARK  148  A    between atoms: _357  and  _359
REMARK  149  A    between atoms: _359  and  _360
REMARK  150  A    between atoms: _359  and  _362
REMARK  151  A    between atoms: _362  and  _363
REMARK  152  A    between atoms: _366  and  _368
REMARK  153  A    between atoms: _368  and  _369
REMARK  154  A    between atoms: _368  and  _371
REMARK  155  A    between atoms: _371  and  _372
REMARK  156  A    between atoms: _375  and  _377
REMARK  157  A    between atoms: _377  and  _378
REMARK  158  A    between atoms: _377  and  _380
REMARK  159  A    between atoms: _383  and  _385
REMARK  160  A    between atoms: _385  and  _386
REMARK  161  A    between atoms: _385  and  _388
REMARK  162  A    between atoms: _388  and  _389
REMARK  163  A    between atoms: _389  and  _390
REMARK  164  A    between atoms: _390  and  _391
REMARK  165  A    between atoms: _391  and  _392
REMARK  166  A    between atoms: _396  and  _398
REMARK  167  A    between atoms: _398  and  _399
REMARK  168  A    between atoms: _398  and  _401
REMARK  169  A    between atoms: _401  and  _402
REMARK  170  A    between atoms: _402  and  _403
REMARK  171  A    between atoms: _405  and  _407
REMARK  172  A    between atoms: _407  and  _408
REMARK  173  A    between atoms: _407  and  _410
REMARK  174  A    between atoms: _410  and  _411
REMARK  175  A    between atoms: _414  and  _416
REMARK  176  A    between atoms: _416  and  _417
REMARK  177  A    between atoms: _419  and  _421
REMARK  178  A    between atoms: _421  and  _422
REMARK  179  A    between atoms: _424  and  _426
REMARK  180  A    between atoms: _426  and  _427
REMARK  181  A    between atoms: _426  and  _429
REMARK  182  A    between atoms: _429  and  _430
REMARK  183  A    between atoms: _433  and  _435
REMARK  184  A    between atoms: _435  and  _436
REMARK  185  A    between atoms: _438  and  _440
REMARK  186  A    between atoms: _440  and  _441
REMARK  187  A    between atoms: _443  and  _445
REMARK  188  A    between atoms: _445  and  _446
REMARK  189  A    between atoms: _445  and  _448
REMARK  190  A    between atoms: _448  and  _449
REMARK  191  A    between atoms: _455  and  _457
REMARK  192  A    between atoms: _457  and  _458
REMARK  193  A    between atoms: _457  and  _460
REMARK  194  A    between atoms: _460  and  _461
REMARK  195  A    between atoms: _464  and  _466
REMARK  196  A    between atoms: _466  and  _467
REMARK  197  A    between atoms: _466  and  _469
REMARK  198  A    between atoms: _472  and  _474
REMARK  199  A    between atoms: _474  and  _475
REMARK  200  A    between atoms: _474  and  _477
REMARK  201  A    between atoms: _477  and  _478
REMARK  202  A    between atoms: _481  and  _483
REMARK  203  A    between atoms: _483  and  _484
REMARK  204  A    between atoms: _483  and  _486
REMARK  205  A    between atoms: _486  and  _487
REMARK  206  A    between atoms: _491  and  _492
REMARK  207  A    between atoms: _497  and  _499
REMARK  208  A    between atoms: _499  and  _500
REMARK  209  A    between atoms: _499  and  _502
REMARK  210  A    between atoms: _505  and  _507
REMARK  211  A    between atoms: _507  and  _508
REMARK  212  A    between atoms: _507  and  _510
REMARK  213  A    between atoms: _510  and  _511
REMARK  214  A    between atoms: _516  and  _518
REMARK  215  A    between atoms: _518  and  _519
REMARK  216  A    between atoms: _518  and  _521
REMARK  217  A    between atoms: _521  and  _522
REMARK  218  A    between atoms: _525  and  _527
REMARK  219  A    between atoms: _527  and  _528
REMARK  220  A    between atoms: _527  and  _530
REMARK  221  A    between atoms: _530  and  _531
REMARK  222  A    between atoms: _534  and  _536
REMARK  223  A    between atoms: _536  and  _537
REMARK  224  A    between atoms: _539  and  _541
REMARK  225  A    between atoms: _541  and  _542
REMARK  226  A    between atoms: _541  and  _544
REMARK  227  A    between atoms: _544  and  _545
REMARK  228  A    between atoms: _545  and  _546
REMARK  229  A    between atoms: _546  and  _547
REMARK  230  A    between atoms: _556  and  _558
REMARK  231  A    between atoms: _558  and  _559
REMARK  232  A    between atoms: _558  and  _561
REMARK  233  A    between atoms: _561  and  _562
REMARK                            x       y       z     vdW  Elec       q    Type
REMARK                         _______ _______ _______ _____ _____    ______ ____
ROOT
ATOM      1  O   HOH     1      20.627  27.607  18.486  0.00  0.00    +0.000 OA
ENDROOT
TORSDOF 0
