REMARK  Name = ../refined-set-2016/3djo/3djo_pocket.pdb
REMARK  110 active torsions:
REMARK  status: ('A' for Active; 'I' for Inactive)
REMARK    1  A    between atoms: _1  and  _3
REMARK    2  A    between atoms: _3  and  _4
REMARK    3  A    between atoms: _3  and  _6
REMARK    4  A    between atoms: _6  and  _7
REMARK    5  A    between atoms: _7  and  _8
REMARK    6  A    between atoms: _10  and  _12
REMARK    7  A    between atoms: _12  and  _13
REMARK    8  A    between atoms: _12  and  _15
REMARK    9  A    between atoms: _15  and  _16
REMARK   10  A    between atoms: _16  and  _17
REMARK   11  A    between atoms: _19  and  _21
REMARK   12  A    between atoms: _21  and  _22
REMARK   13  A    between atoms: _21  and  _24
REMARK   14  A    between atoms: _24  and  _25
REMARK   15  A    between atoms: _25  and  _26
REMARK   16  A    between atoms: _26  and  _27
REMARK   17  A    between atoms: _27  and  _28
REMARK   18  A    between atoms: _33  and  _34
REMARK   19  A    between atoms: _39  and  _41
REMARK   20  A    between atoms: _41  and  _42
REMARK   21  A    between atoms: _41  and  _44
REMARK   22  A    between atoms: _47  and  _49
REMARK   23  A    between atoms: _49  and  _50
REMARK   24  A    between atoms: _49  and  _52
REMARK   25  A    between atoms: _52  and  _53
REMARK   26  A    between atoms: _58  and  _60
REMARK   27  A    between atoms: _60  and  _61
REMARK   28  A    between atoms: _60  and  _63
REMARK   29  A    between atoms: _63  and  _64
REMARK   30  A    between atoms: _67  and  _69
REMARK   31  A    between atoms: _69  and  _70
REMARK   32  A    between atoms: _69  and  _72
REMARK   33  A    between atoms: _72  and  _73
REMARK   34  A    between atoms: _79  and  _81
REMARK   35  A    between atoms: _81  and  _82
REMARK   36  A    between atoms: _81  and  _84
REMARK   37  A    between atoms: _84  and  _85
REMARK   38  A    between atoms: _85  and  _86
REMARK   39  A    between atoms: _86  and  _87
REMARK   40  A    between atoms: _87  and  _88
REMARK   41  A    between atoms: _92  and  _94
REMARK   42  A    between atoms: _94  and  _95
REMARK   43  A    between atoms: _94  and  _97
REMARK   44  A    between atoms: _97  and  _98
REMARK   45  A    between atoms: _103  and  _105
REMARK   46  A    between atoms: _105  and  _106
REMARK   47  A    between atoms: _105  and  _108
REMARK   48  A    between atoms: _108  and  _109
REMARK   49  A    between atoms: _112  and  _114
REMARK   50  A    between atoms: _114  and  _115
REMARK   51  A    between atoms: _114  and  _117
REMARK   52  A    between atoms: _117  and  _118
REMARK   53  A    between atoms: _121  and  _123
REMARK   54  A    between atoms: _123  and  _124
REMARK   55  A    between atoms: _123  and  _126
REMARK   56  A    between atoms: _126  and  _127
REMARK   57  A    between atoms: _130  and  _132
REMARK   58  A    between atoms: _132  and  _133
REMARK   59  A    between atoms: _132  and  _135
REMARK   60  A    between atoms: _137  and  _139
REMARK   61  A    between atoms: _139  and  _140
REMARK   62  A    between atoms: _139  and  _142
REMARK   63  A    between atoms: _142  and  _143
REMARK   64  A    between atoms: _143  and  _144
REMARK   65  A    between atoms: _144  and  _145
REMARK   66  A    between atoms: _154  and  _156
REMARK   67  A    between atoms: _156  and  _157
REMARK   68  A    between atoms: _156  and  _159
REMARK   69  A    between atoms: _159  and  _160
REMARK   70  A    between atoms: _160  and  _161
REMARK   71  A    between atoms: _161  and  _162
REMARK   72  A    between atoms: _162  and  _163
REMARK   73  A    between atoms: _167  and  _169
REMARK   74  A    between atoms: _169  and  _170
REMARK   75  A    between atoms: _169  and  _172
REMARK   76  A    between atoms: _172  and  _173
REMARK   77  A    between atoms: _176  and  _178
REMARK   78  A    between atoms: _178  and  _179
REMARK   79  A    between atoms: _178  and  _181
REMARK   80  A    between atoms: _181  and  _182
REMARK   81  A    between atoms: _187  and  _189
REMARK   82  A    between atoms: _189  and  _190
REMARK   83  A    between atoms: _189  and  _192
REMARK   84  A    between atoms: _192  and  _193
REMARK   85  A    between atoms: _199  and  _201
REMARK   86  A    between atoms: _201  and  _202
REMARK   87  A    between atoms: _201  and  _204
REMARK   88  A    between atoms: _204  and  _205
REMARK   89  A    between atoms: _208  and  _210
REMARK   90  A    between atoms: _210  and  _211
REMARK   91  A    between atoms: _214  and  _216
REMARK   92  A    between atoms: _216  and  _217
REMARK   93  A    between atoms: _216  and  _219
REMARK   94  A    between atoms: _219  and  _220
REMARK   95  A    between atoms: _222  and  _224
REMARK   96  A    between atoms: _224  and  _225
REMARK   97  A    between atoms: _224  and  _227
REMARK   98  A    between atoms: _231  and  _233
REMARK   99  A    between atoms: _233  and  _234
REMARK  100  A    between atoms: _233  and  _236
REMARK  101  A    between atoms: _236  and  _237
REMARK  102  A    between atoms: _243  and  _245
REMARK  103  A    between atoms: _245  and  _246
REMARK  104  A    between atoms: _245  and  _248
REMARK  105  A    between atoms: _248  and  _249
REMARK  106  A    between atoms: _249  and  _250
REMARK  107  A    between atoms: _255  and  _257
REMARK  108  A    between atoms: _257  and  _258
REMARK  109  A    between atoms: _257  and  _260
REMARK  110  A    between atoms: _260  and  _261
REMARK                            x       y       z     vdW  Elec       q    Type
REMARK                         _______ _______ _______ _____ _____    ______ ____
ROOT
ATOM      1  CA  MET A   1      22.497  30.176   9.777  0.00  0.00    +0.134 C 
ENDROOT
BRANCH   1   2
ATOM      2  N   MET A   1      22.144  29.264   8.698  0.00  0.00    -0.239 NA
ATOM      3  H   MET A   1      21.399  29.531   8.024  0.00  0.00    +0.142 HD
ENDBRANCH   1   2
BRANCH   1   4
ATOM      4  C   MET A   1      22.224  29.535  11.120  0.00  0.00    +0.224 C 
ATOM      5  O   MET A   1      22.956  29.766  12.084  0.00  0.00    -0.287 OA
ENDBRANCH   1   4
BRANCH   1   6
ATOM      6  CB  MET A   1      21.755  31.508   9.640  0.00  0.00    +0.037 C 
BRANCH   6   7
ATOM      7  CG  MET A   1      22.177  32.299   8.413  0.00  0.00    +0.059 C 
BRANCH   7   8
ATOM      8  SD  MET A   1      23.919  32.746   8.403  0.00  0.00    -0.139 S 
ATOM      9  CE  MET A   1      23.880  34.123   9.545  0.00  0.00    +0.069 C 
ENDBRANCH   7   8
ENDBRANCH   6   7
ENDBRANCH   1   6
TORSDOF 5
REMARK  Name = ../refined-set-2016/3djo/3djo_pocket.pdb
REMARK  110 active torsions:
REMARK  status: ('A' for Active; 'I' for Inactive)
REMARK    1  A    between atoms: _1  and  _3
REMARK    2  A    between atoms: _3  and  _4
REMARK    3  A    between atoms: _3  and  _6
REMARK    4  A    between atoms: _6  and  _7
REMARK    5  A    between atoms: _7  and  _8
REMARK    6  A    between atoms: _10  and  _12
REMARK    7  A    between atoms: _12  and  _13
REMARK    8  A    between atoms: _12  and  _15
REMARK    9  A    between atoms: _15  and  _16
REMARK   10  A    between atoms: _16  and  _17
REMARK   11  A    between atoms: _19  and  _21
REMARK   12  A    between atoms: _21  and  _22
REMARK   13  A    between atoms: _21  and  _24
REMARK   14  A    between atoms: _24  and  _25
REMARK   15  A    between atoms: _25  and  _26
REMARK   16  A    between atoms: _26  and  _27
REMARK   17  A    between atoms: _27  and  _28
REMARK   18  A    between atoms: _33  and  _34
REMARK   19  A    between atoms: _39  and  _41
REMARK   20  A    between atoms: _41  and  _42
REMARK   21  A    between atoms: _41  and  _44
REMARK   22  A    between atoms: _47  and  _49
REMARK   23  A    between atoms: _49  and  _50
REMARK   24  A    between atoms: _49  and  _52
REMARK   25  A    between atoms: _52  and  _53
REMARK   26  A    between atoms: _58  and  _60
REMARK   27  A    between atoms: _60  and  _61
REMARK   28  A    between atoms: _60  and  _63
REMARK   29  A    between atoms: _63  and  _64
REMARK   30  A    between atoms: _67  and  _69
REMARK   31  A    between atoms: _69  and  _70
REMARK   32  A    between atoms: _69  and  _72
REMARK   33  A    between atoms: _72  and  _73
REMARK   34  A    between atoms: _79  and  _81
REMARK   35  A    between atoms: _81  and  _82
REMARK   36  A    between atoms: _81  and  _84
REMARK   37  A    between atoms: _84  and  _85
REMARK   38  A    between atoms: _85  and  _86
REMARK   39  A    between atoms: _86  and  _87
REMARK   40  A    between atoms: _87  and  _88
REMARK   41  A    between atoms: _92  and  _94
REMARK   42  A    between atoms: _94  and  _95
REMARK   43  A    between atoms: _94  and  _97
REMARK   44  A    between atoms: _97  and  _98
REMARK   45  A    between atoms: _103  and  _105
REMARK   46  A    between atoms: _105  and  _106
REMARK   47  A    between atoms: _105  and  _108
REMARK   48  A    between atoms: _108  and  _109
REMARK   49  A    between atoms: _112  and  _114
REMARK   50  A    between atoms: _114  and  _115
REMARK   51  A    between atoms: _114  and  _117
REMARK   52  A    between atoms: _117  and  _118
REMARK   53  A    between atoms: _121  and  _123
REMARK   54  A    between atoms: _123  and  _124
REMARK   55  A    between atoms: _123  and  _126
REMARK   56  A    between atoms: _126  and  _127
REMARK   57  A    between atoms: _130  and  _132
REMARK   58  A    between atoms: _132  and  _133
REMARK   59  A    between atoms: _132  and  _135
REMARK   60  A    between atoms: _137  and  _139
REMARK   61  A    between atoms: _139  and  _140
REMARK   62  A    between atoms: _139  and  _142
REMARK   63  A    between atoms: _142  and  _143
REMARK   64  A    between atoms: _143  and  _144
REMARK   65  A    between atoms: _144  and  _145
REMARK   66  A    between atoms: _154  and  _156
REMARK   67  A    between atoms: _156  and  _157
REMARK   68  A    between atoms: _156  and  _159
REMARK   69  A    between atoms: _159  and  _160
REMARK   70  A    between atoms: _160  and  _161
REMARK   71  A    between atoms: _161  and  _162
REMARK   72  A    between atoms: _162  and  _163
REMARK   73  A    between atoms: _167  and  _169
REMARK   74  A    between atoms: _169  and  _170
REMARK   75  A    between atoms: _169  and  _172
REMARK   76  A    between atoms: _172  and  _173
REMARK   77  A    between atoms: _176  and  _178
REMARK   78  A    between atoms: _178  and  _179
REMARK   79  A    between atoms: _178  and  _181
REMARK   80  A    between atoms: _181  and  _182
REMARK   81  A    between atoms: _187  and  _189
REMARK   82  A    between atoms: _189  and  _190
REMARK   83  A    between atoms: _189  and  _192
REMARK   84  A    between atoms: _192  and  _193
REMARK   85  A    between atoms: _199  and  _201
REMARK   86  A    between atoms: _201  and  _202
REMARK   87  A    between atoms: _201  and  _204
REMARK   88  A    between atoms: _204  and  _205
REMARK   89  A    between atoms: _208  and  _210
REMARK   90  A    between atoms: _210  and  _211
REMARK   91  A    between atoms: _214  and  _216
REMARK   92  A    between atoms: _216  and  _217
REMARK   93  A    between atoms: _216  and  _219
REMARK   94  A    between atoms: _219  and  _220
REMARK   95  A    between atoms: _222  and  _224
REMARK   96  A    between atoms: _224  and  _225
REMARK   97  A    between atoms: _224  and  _227
REMARK   98  A    between atoms: _231  and  _233
REMARK   99  A    between atoms: _233  and  _234
REMARK  100  A    between atoms: _233  and  _236
REMARK  101  A    between atoms: _236  and  _237
REMARK  102  A    between atoms: _243  and  _245
REMARK  103  A    between atoms: _245  and  _246
REMARK  104  A    between atoms: _245  and  _248
REMARK  105  A    between atoms: _248  and  _249
REMARK  106  A    between atoms: _249  and  _250
REMARK  107  A    between atoms: _255  and  _257
REMARK  108  A    between atoms: _257  and  _258
REMARK  109  A    between atoms: _257  and  _260
REMARK  110  A    between atoms: _260  and  _261
REMARK                            x       y       z     vdW  Elec       q    Type
REMARK                         _______ _______ _______ _____ _____    ______ ____
ROOT
ATOM      1  CA  MET A   1      25.028  31.990  13.849  0.00  0.00    +0.134 C 
ENDROOT
BRANCH   1   2
ATOM      2  N   MET A   1      24.986  30.536  13.972  0.00  0.00    -0.239 NA
ATOM      3  H   MET A   1      24.356  29.990  13.351  0.00  0.00    +0.142 HD
ENDBRANCH   1   2
BRANCH   1   4
ATOM      4  C   MET A   1      23.712  32.674  14.246  0.00  0.00    +0.224 C 
ATOM      5  O   MET A   1      23.490  33.855  13.935  0.00  0.00    -0.287 OA
ENDBRANCH   1   4
BRANCH   1   6
ATOM      6  CB  MET A   1      25.491  32.397  12.454  0.00  0.00    +0.037 C 
BRANCH   6   7
ATOM      7  CG  MET A   1      26.989  32.207  12.264  0.00  0.00    +0.059 C 
BRANCH   7   8
ATOM      8  SD  MET A   1      27.530  32.415  10.571  0.00  0.00    -0.139 S 
ATOM      9  CE  MET A   1      26.954  30.877   9.849  0.00  0.00    +0.069 C 
ENDBRANCH   7   8
ENDBRANCH   6   7
ENDBRANCH   1   6
TORSDOF 5
REMARK  Name = ../refined-set-2016/3djo/3djo_pocket.pdb
REMARK  110 active torsions:
REMARK  status: ('A' for Active; 'I' for Inactive)
REMARK    1  A    between atoms: _1  and  _3
REMARK    2  A    between atoms: _3  and  _4
REMARK    3  A    between atoms: _3  and  _6
REMARK    4  A    between atoms: _6  and  _7
REMARK    5  A    between atoms: _7  and  _8
REMARK    6  A    between atoms: _10  and  _12
REMARK    7  A    between atoms: _12  and  _13
REMARK    8  A    between atoms: _12  and  _15
REMARK    9  A    between atoms: _15  and  _16
REMARK   10  A    between atoms: _16  and  _17
REMARK   11  A    between atoms: _19  and  _21
REMARK   12  A    between atoms: _21  and  _22
REMARK   13  A    between atoms: _21  and  _24
REMARK   14  A    between atoms: _24  and  _25
REMARK   15  A    between atoms: _25  and  _26
REMARK   16  A    between atoms: _26  and  _27
REMARK   17  A    between atoms: _27  and  _28
REMARK   18  A    between atoms: _33  and  _34
REMARK   19  A    between atoms: _39  and  _41
REMARK   20  A    between atoms: _41  and  _42
REMARK   21  A    between atoms: _41  and  _44
REMARK   22  A    between atoms: _47  and  _49
REMARK   23  A    between atoms: _49  and  _50
REMARK   24  A    between atoms: _49  and  _52
REMARK   25  A    between atoms: _52  and  _53
REMARK   26  A    between atoms: _58  and  _60
REMARK   27  A    between atoms: _60  and  _61
REMARK   28  A    between atoms: _60  and  _63
REMARK   29  A    between atoms: _63  and  _64
REMARK   30  A    between atoms: _67  and  _69
REMARK   31  A    between atoms: _69  and  _70
REMARK   32  A    between atoms: _69  and  _72
REMARK   33  A    between atoms: _72  and  _73
REMARK   34  A    between atoms: _79  and  _81
REMARK   35  A    between atoms: _81  and  _82
REMARK   36  A    between atoms: _81  and  _84
REMARK   37  A    between atoms: _84  and  _85
REMARK   38  A    between atoms: _85  and  _86
REMARK   39  A    between atoms: _86  and  _87
REMARK   40  A    between atoms: _87  and  _88
REMARK   41  A    between atoms: _92  and  _94
REMARK   42  A    between atoms: _94  and  _95
REMARK   43  A    between atoms: _94  and  _97
REMARK   44  A    between atoms: _97  and  _98
REMARK   45  A    between atoms: _103  and  _105
REMARK   46  A    between atoms: _105  and  _106
REMARK   47  A    between atoms: _105  and  _108
REMARK   48  A    between atoms: _108  and  _109
REMARK   49  A    between atoms: _112  and  _114
REMARK   50  A    between atoms: _114  and  _115
REMARK   51  A    between atoms: _114  and  _117
REMARK   52  A    between atoms: _117  and  _118
REMARK   53  A    between atoms: _121  and  _123
REMARK   54  A    between atoms: _123  and  _124
REMARK   55  A    between atoms: _123  and  _126
REMARK   56  A    between atoms: _126  and  _127
REMARK   57  A    between atoms: _130  and  _132
REMARK   58  A    between atoms: _132  and  _133
REMARK   59  A    between atoms: _132  and  _135
REMARK   60  A    between atoms: _137  and  _139
REMARK   61  A    between atoms: _139  and  _140
REMARK   62  A    between atoms: _139  and  _142
REMARK   63  A    between atoms: _142  and  _143
REMARK   64  A    between atoms: _143  and  _144
REMARK   65  A    between atoms: _144  and  _145
REMARK   66  A    between atoms: _154  and  _156
REMARK   67  A    between atoms: _156  and  _157
REMARK   68  A    between atoms: _156  and  _159
REMARK   69  A    between atoms: _159  and  _160
REMARK   70  A    between atoms: _160  and  _161
REMARK   71  A    between atoms: _161  and  _162
REMARK   72  A    between atoms: _162  and  _163
REMARK   73  A    between atoms: _167  and  _169
REMARK   74  A    between atoms: _169  and  _170
REMARK   75  A    between atoms: _169  and  _172
REMARK   76  A    between atoms: _172  and  _173
REMARK   77  A    between atoms: _176  and  _178
REMARK   78  A    between atoms: _178  and  _179
REMARK   79  A    between atoms: _178  and  _181
REMARK   80  A    between atoms: _181  and  _182
REMARK   81  A    between atoms: _187  and  _189
REMARK   82  A    between atoms: _189  and  _190
REMARK   83  A    between atoms: _189  and  _192
REMARK   84  A    between atoms: _192  and  _193
REMARK   85  A    between atoms: _199  and  _201
REMARK   86  A    between atoms: _201  and  _202
REMARK   87  A    between atoms: _201  and  _204
REMARK   88  A    between atoms: _204  and  _205
REMARK   89  A    between atoms: _208  and  _210
REMARK   90  A    between atoms: _210  and  _211
REMARK   91  A    between atoms: _214  and  _216
REMARK   92  A    between atoms: _216  and  _217
REMARK   93  A    between atoms: _216  and  _219
REMARK   94  A    between atoms: _219  and  _220
REMARK   95  A    between atoms: _222  and  _224
REMARK   96  A    between atoms: _224  and  _225
REMARK   97  A    between atoms: _224  and  _227
REMARK   98  A    between atoms: _231  and  _233
REMARK   99  A    between atoms: _233  and  _234
REMARK  100  A    between atoms: _233  and  _236
REMARK  101  A    between atoms: _236  and  _237
REMARK  102  A    between atoms: _243  and  _245
REMARK  103  A    between atoms: _245  and  _246
REMARK  104  A    between atoms: _245  and  _248
REMARK  105  A    between atoms: _248  and  _249
REMARK  106  A    between atoms: _249  and  _250
REMARK  107  A    between atoms: _255  and  _257
REMARK  108  A    between atoms: _257  and  _258
REMARK  109  A    between atoms: _257  and  _260
REMARK  110  A    between atoms: _260  and  _261
REMARK                            x       y       z     vdW  Elec       q    Type
REMARK                         _______ _______ _______ _____ _____    ______ ____
ROOT
ATOM      1  C   VAL A   3      25.984  38.198   7.365  0.00  0.00    +0.241 C 
ATOM      2  O   VAL A   3      26.884  38.245   8.192  0.00  0.00    -0.273 OA
ATOM      3  N   ASN A   4      25.843  37.200   6.498  0.00  0.00    -0.297 N 
ATOM      4  H   ASN A   4      25.014  37.181   5.871  0.00  0.00    +0.150 HD
ENDROOT
BRANCH   3   5
ATOM      5  CA  ASN A   4      26.829  36.133   6.411  0.00  0.00    +0.158 C 
BRANCH   5   6
ATOM      6  C   ASN A   4      26.875  35.509   5.028  0.00  0.00    +0.241 C 
ATOM      7  N   THR A   5      28.090  35.308   4.532  0.00  0.00    -0.295 N 
ATOM      8  H   THR A   5      28.912  35.576   5.111  0.00  0.00    +0.150 HD
ATOM      9  O   ASN A   4      25.840  35.222   4.438  0.00  0.00    -0.273 OA
BRANCH   7  10
ATOM     10  CA  THR A   5      28.328  34.729   3.213  0.00  0.00    +0.176 C 
BRANCH  10  11
ATOM     11  C   THR A   5      28.823  33.277   3.290  0.00  0.00    +0.243 C 
ATOM     12  O   THR A   5      29.748  32.962   4.048  0.00  0.00    -0.273 OA
ATOM     13  N   PHE A   6      28.209  32.409   2.493  0.00  0.00    -0.298 N 
ATOM     14  H   PHE A   6      27.346  32.702   1.992  0.00  0.00    +0.150 HD
BRANCH  13  15
ATOM     15  CA  PHE A   6      28.719  31.050   2.304  0.00  0.00    +0.141 C 
BRANCH  15  16
ATOM     16  C   PHE A   6      29.357  30.941   0.933  0.00  0.00    +0.227 C 
ATOM     17  O   PHE A   6      28.870  31.524  -0.040  0.00  0.00    -0.286 OA
ENDBRANCH  15  16
BRANCH  15  18
ATOM     18  CB  PHE A   6      27.598  30.019   2.446  0.00  0.00    +0.054 C 
BRANCH  18  19
ATOM     19  CG  PHE A   6      27.069  29.914   3.840  0.00  0.00    -0.020 A 
ATOM     20  CD2 PHE A   6      27.770  29.202   4.812  0.00  0.00    -0.004 A 
ATOM     21  CE2 PHE A   6      27.293  29.122   6.120  0.00  0.00    -0.000 A 
ATOM     22  CZ  PHE A   6      26.102  29.755   6.452  0.00  0.00    -0.000 A 
ATOM     23  CE1 PHE A   6      25.403  30.473   5.491  0.00  0.00    -0.000 A 
ATOM     24  CD1 PHE A   6      25.890  30.552   4.194  0.00  0.00    -0.004 A 
ENDBRANCH  18  19
ENDBRANCH  15  18
ENDBRANCH  13  15
ENDBRANCH  10  11
BRANCH  10  25
ATOM     25  CB  THR A   5      29.369  35.563   2.441  0.00  0.00    +0.137 C 
ATOM     26  CG2 THR A   5      29.440  35.137   0.964  0.00  0.00    +0.034 C 
BRANCH  25  27
ATOM     27  OG1 THR A   5      29.015  36.950   2.526  0.00  0.00    -0.382 OA
ATOM     28  HG1 THR A   5      28.118  37.085   2.129  0.00  0.00    +0.210 HD
ENDBRANCH  25  27
ENDBRANCH  10  25
ENDBRANCH   7  10
ENDBRANCH   5   6
BRANCH   5  29
ATOM     29  CB  ASN A   4      26.542  35.038   7.434  0.00  0.00    +0.114 C 
BRANCH  29  30
ATOM     30  CG  ASN A   4      27.652  34.026   7.506  0.00  0.00    +0.222 C 
ATOM     31  OD1 ASN A   4      28.705  34.304   8.070  0.00  0.00    -0.275 OA
ATOM     32  ND2 ASN A   4      27.437  32.854   6.924  0.00  0.00    -0.329 N 
ATOM     33 HD21 ASN A   4      28.178  32.125   6.934  0.00  0.00    +0.145 HD
ATOM     34 HD22 ASN A   4      26.527  32.664   6.458  0.00  0.00    +0.145 HD
ENDBRANCH  29  30
ENDBRANCH   5  29
ENDBRANCH   3   5
BRANCH   1  35
ATOM     35  CA  VAL A   3      24.940  39.297   7.298  0.00  0.00    +0.149 C 
BRANCH  35  37
ATOM     36  C   PRO A   2      23.198  39.806   8.945  0.00  0.00    +0.241 C 
ATOM     37  N   VAL A   3      24.473  39.559   8.660  0.00  0.00    -0.297 N 
ATOM     38  H   VAL A   3      25.166  39.552   9.436  0.00  0.00    +0.150 HD
ATOM     39  O   PRO A   2      22.301  39.767   8.106  0.00  0.00    -0.273 OA
BRANCH  36  45
ATOM     40  C   LYS A   1      23.341  38.091  11.562  0.00  0.00    +0.241 C 
ATOM     41  N   PRO A   2      23.578  39.406  11.414  0.00  0.00    -0.272 N 
ATOM     42  CD  PRO A   2      24.485  40.250  12.215  0.00  0.00    +0.094 C 
ATOM     43  CG  PRO A   2      23.905  41.608  12.042  0.00  0.00    +0.024 C 
ATOM     44  CB  PRO A   2      23.315  41.626  10.666  0.00  0.00    +0.031 C 
ATOM     45  CA  PRO A   2      22.871  40.181  10.389  0.00  0.00    +0.152 C 
ATOM     46  O   LYS A   1      22.616  37.463  10.801  0.00  0.00    -0.273 OA
BRANCH  40  47
ATOM     47  CA  LYS A   1      23.978  37.393  12.763  0.00  0.00    +0.145 C 
BRANCH  47  48
ATOM     48  N   LYS A   1      22.901  36.773  13.507  0.00  0.00    -0.238 NA
ATOM     49  H   LYS A   1      22.875  35.740  13.622  0.00  0.00    +0.142 HD
ENDBRANCH  47  48
BRANCH  47  50
ATOM     50  CB  LYS A   1      25.015  36.367  12.316  0.00  0.00    +0.026 C 
BRANCH  50  51
ATOM     51  CG  LYS A   1      26.221  36.996  11.626  0.00  0.00    -0.000 C 
BRANCH  51  52
ATOM     52  CD  LYS A   1      27.316  35.985  11.391  0.00  0.00    -0.024 C 
BRANCH  52  53
ATOM     53  CE  LYS A   1      28.503  36.616  10.668  0.00  0.00    -0.086 C 
BRANCH  53  54
ATOM     54  NZ  LYS A   1      29.551  35.598  10.349  0.00  0.00    +0.380 N 
ATOM     55  HZ1 LYS A   1      29.893  35.166  11.231  0.00  0.00    -0.089 HD
ATOM     56  HZ2 LYS A   1      30.343  36.060   9.858  0.00  0.00    -0.089 HD
ATOM     57  HZ3 LYS A   1      29.143  34.863   9.737  0.00  0.00    -0.089 HD
ENDBRANCH  53  54
ENDBRANCH  52  53
ENDBRANCH  51  52
ENDBRANCH  50  51
ENDBRANCH  47  50
ENDBRANCH  40  47
ENDBRANCH  36  45
ENDBRANCH  35  37
BRANCH  35  58
ATOM     58  CB  VAL A   3      25.545  40.578   6.635  0.00  0.00    +0.027 C 
ATOM     59  CG2 VAL A   3      24.494  41.675   6.504  0.00  0.00    +0.002 C 
ATOM     60  CG1 VAL A   3      26.141  40.271   5.265  0.00  0.00    +0.002 C 
ENDBRANCH  35  58
ENDBRANCH   1  35
TORSDOF 23
REMARK  Name = ../refined-set-2016/3djo/3djo_pocket.pdb
REMARK  110 active torsions:
REMARK  status: ('A' for Active; 'I' for Inactive)
REMARK    1  A    between atoms: _1  and  _3
REMARK    2  A    between atoms: _3  and  _4
REMARK    3  A    between atoms: _3  and  _6
REMARK    4  A    between atoms: _6  and  _7
REMARK    5  A    between atoms: _7  and  _8
REMARK    6  A    between atoms: _10  and  _12
REMARK    7  A    between atoms: _12  and  _13
REMARK    8  A    between atoms: _12  and  _15
REMARK    9  A    between atoms: _15  and  _16
REMARK   10  A    between atoms: _16  and  _17
REMARK   11  A    between atoms: _19  and  _21
REMARK   12  A    between atoms: _21  and  _22
REMARK   13  A    between atoms: _21  and  _24
REMARK   14  A    between atoms: _24  and  _25
REMARK   15  A    between atoms: _25  and  _26
REMARK   16  A    between atoms: _26  and  _27
REMARK   17  A    between atoms: _27  and  _28
REMARK   18  A    between atoms: _33  and  _34
REMARK   19  A    between atoms: _39  and  _41
REMARK   20  A    between atoms: _41  and  _42
REMARK   21  A    between atoms: _41  and  _44
REMARK   22  A    between atoms: _47  and  _49
REMARK   23  A    between atoms: _49  and  _50
REMARK   24  A    between atoms: _49  and  _52
REMARK   25  A    between atoms: _52  and  _53
REMARK   26  A    between atoms: _58  and  _60
REMARK   27  A    between atoms: _60  and  _61
REMARK   28  A    between atoms: _60  and  _63
REMARK   29  A    between atoms: _63  and  _64
REMARK   30  A    between atoms: _67  and  _69
REMARK   31  A    between atoms: _69  and  _70
REMARK   32  A    between atoms: _69  and  _72
REMARK   33  A    between atoms: _72  and  _73
REMARK   34  A    between atoms: _79  and  _81
REMARK   35  A    between atoms: _81  and  _82
REMARK   36  A    between atoms: _81  and  _84
REMARK   37  A    between atoms: _84  and  _85
REMARK   38  A    between atoms: _85  and  _86
REMARK   39  A    between atoms: _86  and  _87
REMARK   40  A    between atoms: _87  and  _88
REMARK   41  A    between atoms: _92  and  _94
REMARK   42  A    between atoms: _94  and  _95
REMARK   43  A    between atoms: _94  and  _97
REMARK   44  A    between atoms: _97  and  _98
REMARK   45  A    between atoms: _103  and  _105
REMARK   46  A    between atoms: _105  and  _106
REMARK   47  A    between atoms: _105  and  _108
REMARK   48  A    between atoms: _108  and  _109
REMARK   49  A    between atoms: _112  and  _114
REMARK   50  A    between atoms: _114  and  _115
REMARK   51  A    between atoms: _114  and  _117
REMARK   52  A    between atoms: _117  and  _118
REMARK   53  A    between atoms: _121  and  _123
REMARK   54  A    between atoms: _123  and  _124
REMARK   55  A    between atoms: _123  and  _126
REMARK   56  A    between atoms: _126  and  _127
REMARK   57  A    between atoms: _130  and  _132
REMARK   58  A    between atoms: _132  and  _133
REMARK   59  A    between atoms: _132  and  _135
REMARK   60  A    between atoms: _137  and  _139
REMARK   61  A    between atoms: _139  and  _140
REMARK   62  A    between atoms: _139  and  _142
REMARK   63  A    between atoms: _142  and  _143
REMARK   64  A    between atoms: _143  and  _144
REMARK   65  A    between atoms: _144  and  _145
REMARK   66  A    between atoms: _154  and  _156
REMARK   67  A    between atoms: _156  and  _157
REMARK   68  A    between atoms: _156  and  _159
REMARK   69  A    between atoms: _159  and  _160
REMARK   70  A    between atoms: _160  and  _161
REMARK   71  A    between atoms: _161  and  _162
REMARK   72  A    between atoms: _162  and  _163
REMARK   73  A    between atoms: _167  and  _169
REMARK   74  A    between atoms: _169  and  _170
REMARK   75  A    between atoms: _169  and  _172
REMARK   76  A    between atoms: _172  and  _173
REMARK   77  A    between atoms: _176  and  _178
REMARK   78  A    between atoms: _178  and  _179
REMARK   79  A    between atoms: _178  and  _181
REMARK   80  A    between atoms: _181  and  _182
REMARK   81  A    between atoms: _187  and  _189
REMARK   82  A    between atoms: _189  and  _190
REMARK   83  A    between atoms: _189  and  _192
REMARK   84  A    between atoms: _192  and  _193
REMARK   85  A    between atoms: _199  and  _201
REMARK   86  A    between atoms: _201  and  _202
REMARK   87  A    between atoms: _201  and  _204
REMARK   88  A    between atoms: _204  and  _205
REMARK   89  A    between atoms: _208  and  _210
REMARK   90  A    between atoms: _210  and  _211
REMARK   91  A    between atoms: _214  and  _216
REMARK   92  A    between atoms: _216  and  _217
REMARK   93  A    between atoms: _216  and  _219
REMARK   94  A    between atoms: _219  and  _220
REMARK   95  A    between atoms: _222  and  _224
REMARK   96  A    between atoms: _224  and  _225
REMARK   97  A    between atoms: _224  and  _227
REMARK   98  A    between atoms: _231  and  _233
REMARK   99  A    between atoms: _233  and  _234
REMARK  100  A    between atoms: _233  and  _236
REMARK  101  A    between atoms: _236  and  _237
REMARK  102  A    between atoms: _243  and  _245
REMARK  103  A    between atoms: _245  and  _246
REMARK  104  A    between atoms: _245  and  _248
REMARK  105  A    between atoms: _248  and  _249
REMARK  106  A    between atoms: _249  and  _250
REMARK  107  A    between atoms: _255  and  _257
REMARK  108  A    between atoms: _257  and  _258
REMARK  109  A    between atoms: _257  and  _260
REMARK  110  A    between atoms: _260  and  _261
REMARK                            x       y       z     vdW  Elec       q    Type
REMARK                         _______ _______ _______ _____ _____    ______ ____
ROOT
ATOM      1  C   LYS A   1      37.336  47.884   7.033  0.00  0.00    +0.238 C 
ATOM      2  N   ASN A   2      37.795  47.108   8.013  0.00  0.00    -0.298 N 
ATOM      3  H   ASN A   2      37.933  46.093   7.835  0.00  0.00    +0.150 HD
ATOM      4  O   LYS A   1      37.207  49.102   7.155  0.00  0.00    -0.274 OA
ENDROOT
BRANCH   1   5
ATOM      5  CA  LYS A   1      36.988  47.191   5.713  0.00  0.00    +0.145 C 
BRANCH   5   6
ATOM      6  N   LYS A   1      37.938  46.118   5.405  0.00  0.00    -0.238 NA
ATOM      7  H   LYS A   1      37.571  45.166   5.201  0.00  0.00    +0.142 HD
ENDBRANCH   5   6
BRANCH   5   8
ATOM      8  CB  LYS A   1      35.559  46.642   5.794  0.00  0.00    +0.026 C 
BRANCH   8   9
ATOM      9  CG  LYS A   1      34.919  46.282   4.468  0.00  0.00    -0.000 C 
BRANCH   9  10
ATOM     10  CD  LYS A   1      33.444  45.988   4.681  0.00  0.00    -0.024 C 
BRANCH  10  11
ATOM     11  CE  LYS A   1      32.756  45.583   3.384  0.00  0.00    -0.086 C 
BRANCH  11  12
ATOM     12  NZ  LYS A   1      31.277  45.662   3.503  0.00  0.00    +0.380 N 
ATOM     13  HZ1 LYS A   1      30.957  45.024   4.259  0.00  0.00    -0.089 HD
ATOM     14  HZ2 LYS A   1      31.000  46.638   3.732  0.00  0.00    -0.089 HD
ATOM     15  HZ3 LYS A   1      30.842  45.379   2.601  0.00  0.00    -0.089 HD
ENDBRANCH  11  12
ENDBRANCH  10  11
ENDBRANCH   9  10
ENDBRANCH   8   9
ENDBRANCH   5   8
ENDBRANCH   1   5
BRANCH   2  16
ATOM     16  CA  ASN A   2      38.110  47.652   9.338  0.00  0.00    +0.146 C 
BRANCH  16  17
ATOM     17  C   ASN A   2      39.524  48.224   9.462  0.00  0.00    +0.227 C 
ATOM     18  O   ASN A   2      39.975  48.554  10.559  0.00  0.00    -0.286 OA
ENDBRANCH  16  17
BRANCH  16  19
ATOM     19  CB  ASN A   2      37.855  46.602  10.425  0.00  0.00    +0.112 C 
BRANCH  19  20
ATOM     20  CG  ASN A   2      38.863  45.457  10.397  0.00  0.00    +0.222 C 
ATOM     21  ND2 ASN A   2      38.658  44.476  11.270  0.00  0.00    -0.329 N 
ATOM     22 HD21 ASN A   2      37.851  44.523  11.924  0.00  0.00    +0.145 HD
ATOM     23 HD22 ASN A   2      39.305  43.662  11.299  0.00  0.00    +0.145 HD
ATOM     24  OD1 ASN A   2      39.805  45.449   9.600  0.00  0.00    -0.275 OA
ENDBRANCH  19  20
ENDBRANCH  16  19
ENDBRANCH   2  16
TORSDOF 11
REMARK  Name = ../refined-set-2016/3djo/3djo_pocket.pdb
REMARK  110 active torsions:
REMARK  status: ('A' for Active; 'I' for Inactive)
REMARK    1  A    between atoms: _1  and  _3
REMARK    2  A    between atoms: _3  and  _4
REMARK    3  A    between atoms: _3  and  _6
REMARK    4  A    between atoms: _6  and  _7
REMARK    5  A    between atoms: _7  and  _8
REMARK    6  A    between atoms: _10  and  _12
REMARK    7  A    between atoms: _12  and  _13
REMARK    8  A    between atoms: _12  and  _15
REMARK    9  A    between atoms: _15  and  _16
REMARK   10  A    between atoms: _16  and  _17
REMARK   11  A    between atoms: _19  and  _21
REMARK   12  A    between atoms: _21  and  _22
REMARK   13  A    between atoms: _21  and  _24
REMARK   14  A    between atoms: _24  and  _25
REMARK   15  A    between atoms: _25  and  _26
REMARK   16  A    between atoms: _26  and  _27
REMARK   17  A    between atoms: _27  and  _28
REMARK   18  A    between atoms: _33  and  _34
REMARK   19  A    between atoms: _39  and  _41
REMARK   20  A    between atoms: _41  and  _42
REMARK   21  A    between atoms: _41  and  _44
REMARK   22  A    between atoms: _47  and  _49
REMARK   23  A    between atoms: _49  and  _50
REMARK   24  A    between atoms: _49  and  _52
REMARK   25  A    between atoms: _52  and  _53
REMARK   26  A    between atoms: _58  and  _60
REMARK   27  A    between atoms: _60  and  _61
REMARK   28  A    between atoms: _60  and  _63
REMARK   29  A    between atoms: _63  and  _64
REMARK   30  A    between atoms: _67  and  _69
REMARK   31  A    between atoms: _69  and  _70
REMARK   32  A    between atoms: _69  and  _72
REMARK   33  A    between atoms: _72  and  _73
REMARK   34  A    between atoms: _79  and  _81
REMARK   35  A    between atoms: _81  and  _82
REMARK   36  A    between atoms: _81  and  _84
REMARK   37  A    between atoms: _84  and  _85
REMARK   38  A    between atoms: _85  and  _86
REMARK   39  A    between atoms: _86  and  _87
REMARK   40  A    between atoms: _87  and  _88
REMARK   41  A    between atoms: _92  and  _94
REMARK   42  A    between atoms: _94  and  _95
REMARK   43  A    between atoms: _94  and  _97
REMARK   44  A    between atoms: _97  and  _98
REMARK   45  A    between atoms: _103  and  _105
REMARK   46  A    between atoms: _105  and  _106
REMARK   47  A    between atoms: _105  and  _108
REMARK   48  A    between atoms: _108  and  _109
REMARK   49  A    between atoms: _112  and  _114
REMARK   50  A    between atoms: _114  and  _115
REMARK   51  A    between atoms: _114  and  _117
REMARK   52  A    between atoms: _117  and  _118
REMARK   53  A    between atoms: _121  and  _123
REMARK   54  A    between atoms: _123  and  _124
REMARK   55  A    between atoms: _123  and  _126
REMARK   56  A    between atoms: _126  and  _127
REMARK   57  A    between atoms: _130  and  _132
REMARK   58  A    between atoms: _132  and  _133
REMARK   59  A    between atoms: _132  and  _135
REMARK   60  A    between atoms: _137  and  _139
REMARK   61  A    between atoms: _139  and  _140
REMARK   62  A    between atoms: _139  and  _142
REMARK   63  A    between atoms: _142  and  _143
REMARK   64  A    between atoms: _143  and  _144
REMARK   65  A    between atoms: _144  and  _145
REMARK   66  A    between atoms: _154  and  _156
REMARK   67  A    between atoms: _156  and  _157
REMARK   68  A    between atoms: _156  and  _159
REMARK   69  A    between atoms: _159  and  _160
REMARK   70  A    between atoms: _160  and  _161
REMARK   71  A    between atoms: _161  and  _162
REMARK   72  A    between atoms: _162  and  _163
REMARK   73  A    between atoms: _167  and  _169
REMARK   74  A    between atoms: _169  and  _170
REMARK   75  A    between atoms: _169  and  _172
REMARK   76  A    between atoms: _172  and  _173
REMARK   77  A    between atoms: _176  and  _178
REMARK   78  A    between atoms: _178  and  _179
REMARK   79  A    between atoms: _178  and  _181
REMARK   80  A    between atoms: _181  and  _182
REMARK   81  A    between atoms: _187  and  _189
REMARK   82  A    between atoms: _189  and  _190
REMARK   83  A    between atoms: _189  and  _192
REMARK   84  A    between atoms: _192  and  _193
REMARK   85  A    between atoms: _199  and  _201
REMARK   86  A    between atoms: _201  and  _202
REMARK   87  A    between atoms: _201  and  _204
REMARK   88  A    between atoms: _204  and  _205
REMARK   89  A    between atoms: _208  and  _210
REMARK   90  A    between atoms: _210  and  _211
REMARK   91  A    between atoms: _214  and  _216
REMARK   92  A    between atoms: _216  and  _217
REMARK   93  A    between atoms: _216  and  _219
REMARK   94  A    between atoms: _219  and  _220
REMARK   95  A    between atoms: _222  and  _224
REMARK   96  A    between atoms: _224  and  _225
REMARK   97  A    between atoms: _224  and  _227
REMARK   98  A    between atoms: _231  and  _233
REMARK   99  A    between atoms: _233  and  _234
REMARK  100  A    between atoms: _233  and  _236
REMARK  101  A    between atoms: _236  and  _237
REMARK  102  A    between atoms: _243  and  _245
REMARK  103  A    between atoms: _245  and  _246
REMARK  104  A    between atoms: _245  and  _248
REMARK  105  A    between atoms: _248  and  _249
REMARK  106  A    between atoms: _249  and  _250
REMARK  107  A    between atoms: _255  and  _257
REMARK  108  A    between atoms: _257  and  _258
REMARK  109  A    between atoms: _257  and  _260
REMARK  110  A    between atoms: _260  and  _261
REMARK                            x       y       z     vdW  Elec       q    Type
REMARK                         _______ _______ _______ _____ _____    ______ ____
ROOT
ATOM      1  C   ASP A   3      23.322  35.555   1.580  0.00  0.00    +0.241 C 
ATOM      2  N   CYS A   4      23.512  35.594   2.897  0.00  0.00    -0.296 N 
ATOM      3  H   CYS A   4      24.478  35.713   3.263  0.00  0.00    +0.150 HD
ATOM      4  O   ASP A   3      22.238  35.288   1.052  0.00  0.00    -0.273 OA
ENDROOT
BRANCH   2   5
ATOM      5  CA  CYS A   4      22.412  35.475   3.841  0.00  0.00    +0.160 C 
BRANCH   5   6
ATOM      6  C   CYS A   4      22.297  36.789   4.594  0.00  0.00    +0.242 C 
ATOM      7  O   CYS A   4      23.251  37.202   5.248  0.00  0.00    -0.273 OA
ATOM      8  N   ARG A   5      21.137  37.439   4.498  0.00  0.00    -0.298 N 
ATOM      9  H   ARG A   5      20.373  37.027   3.925  0.00  0.00    +0.150 HD
BRANCH   8  10
ATOM     10  CA  ARG A   5      20.906  38.724   5.181  0.00  0.00    +0.137 C 
BRANCH  10  11
ATOM     11  C   ARG A   5      19.583  38.707   5.868  0.00  0.00    +0.227 C 
ATOM     12  O   ARG A   5      18.587  38.290   5.272  0.00  0.00    -0.286 OA
ENDBRANCH  10  11
BRANCH  10  13
ATOM     13  CB  ARG A   5      20.825  39.902   4.212  0.00  0.00    +0.031 C 
BRANCH  13  14
ATOM     14  CG  ARG A   5      21.784  39.880   3.139  0.00  0.00    +0.045 C 
BRANCH  14  15
ATOM     15  CD  ARG A   5      22.219  41.268   2.804  0.00  0.00    +0.174 C 
BRANCH  15  16
ATOM     16  NE  ARG A   5      23.529  41.133   2.214  0.00  0.00    -0.265 N 
ATOM     17  CZ  ARG A   5      24.506  42.019   2.303  0.00  0.00    +0.342 C 
ATOM     18  NH2 ARG A   5      24.323  43.164   2.951  0.00  0.00    -0.292 N 
ATOM     19 HH21 ARG A   5      23.405  43.370   3.394  0.00  0.00    +0.255 HD
ATOM     20 HH22 ARG A   5      25.098  43.855   3.015  0.00  0.00    +0.255 HD
ATOM     21  NH1 ARG A   5      25.663  41.739   1.725  0.00  0.00    -0.292 N 
ATOM     22 HH11 ARG A   5      26.449  42.418   1.779  0.00  0.00    +0.255 HD
ATOM     23 HH12 ARG A   5      25.786  40.840   1.217  0.00  0.00    +0.255 HD
ATOM     24  HE  ARG A   5      23.721  40.266   1.673  0.00  0.00    +0.259 HD
ENDBRANCH  15  16
ENDBRANCH  14  15
ENDBRANCH  13  14
ENDBRANCH  10  13
ENDBRANCH   8  10
ENDBRANCH   5   6
BRANCH   5  25
ATOM     25  CB  CYS A   4      22.673  34.327   4.826  0.00  0.00    +0.098 C 
ATOM     26  SG  CYS A   4      22.842  32.710   4.036  0.00  0.00    -0.080 S 
ENDBRANCH   5  25
ENDBRANCH   2   5
BRANCH   1  27
ATOM     27  CA  ASP A   3      24.543  35.869   0.724  0.00  0.00    +0.160 C 
BRANCH  27  30
ATOM     28  C   THR A   2      25.404  33.721  -0.052  0.00  0.00    +0.243 C 
ATOM     29  O   THR A   2      26.109  33.534   0.946  0.00  0.00    -0.273 OA
ATOM     30  N   ASP A   3      24.688  34.817  -0.263  0.00  0.00    -0.296 N 
ATOM     31  H   ASP A   3      24.208  34.927  -1.179  0.00  0.00    +0.150 HD
BRANCH  28  32
ATOM     32  CA  THR A   2      25.346  32.694  -1.162  0.00  0.00    +0.176 C 
BRANCH  32  34
ATOM     33  C   ILE A   1      27.121  32.526  -2.828  0.00  0.00    +0.238 C 
ATOM     34  N   THR A   2      26.717  32.417  -1.567  0.00  0.00    -0.295 N 
ATOM     35  H   THR A   2      27.404  32.123  -0.844  0.00  0.00    +0.150 HD
ATOM     36  O   ILE A   1      26.353  32.740  -3.770  0.00  0.00    -0.274 OA
BRANCH  33  37
ATOM     37  CA  ILE A   1      28.616  32.359  -3.068  0.00  0.00    +0.145 C 
BRANCH  37  38
ATOM     38  N   ILE A   1      28.843  32.099  -4.490  0.00  0.00    -0.238 NA
ATOM     39  H   ILE A   1      28.354  32.678  -5.202  0.00  0.00    +0.142 HD
ENDBRANCH  37  38
BRANCH  37  40
ATOM     40  CB  ILE A   1      29.387  33.633  -2.573  0.00  0.00    +0.025 C 
ATOM     41  CG2 ILE A   1      30.906  33.489  -2.809  0.00  0.00    +0.002 C 
BRANCH  40  42
ATOM     42  CG1 ILE A   1      28.868  34.894  -3.271  0.00  0.00    +0.002 C 
ATOM     43  CD1 ILE A   1      29.393  36.176  -2.684  0.00  0.00    +0.000 C 
ENDBRANCH  40  42
ENDBRANCH  37  40
ENDBRANCH  33  37
ENDBRANCH  32  34
BRANCH  32  44
ATOM     44  CB  THR A   2      24.616  31.421  -0.668  0.00  0.00    +0.137 C 
ATOM     45  CG2 THR A   2      23.221  31.766  -0.125  0.00  0.00    +0.034 C 
BRANCH  44  46
ATOM     46  OG1 THR A   2      24.489  30.503  -1.757  0.00  0.00    -0.382 OA
ATOM     47  HG1 THR A   2      25.389  30.263  -2.091  0.00  0.00    +0.210 HD
ENDBRANCH  44  46
ENDBRANCH  32  44
ENDBRANCH  28  32
ENDBRANCH  27  30
BRANCH  27  48
ATOM     48  CB  ASP A   3      24.337  37.205   0.010  0.00  0.00    +0.143 C 
BRANCH  48  49
ATOM     49  CG  ASP A   3      24.201  38.361   0.960  0.00  0.00    +0.367 C 
ATOM     50  OD2 ASP A   3      25.199  38.723   1.622  0.00  0.00    -0.246 OA
ATOM     51  OD1 ASP A   3      23.087  38.918   1.030  0.00  0.00    -0.246 OA
ENDBRANCH  48  49
ENDBRANCH  27  48
ENDBRANCH   1  27
TORSDOF 21
REMARK  Name = ../refined-set-2016/3djo/3djo_pocket.pdb
REMARK  110 active torsions:
REMARK  status: ('A' for Active; 'I' for Inactive)
REMARK    1  A    between atoms: _1  and  _3
REMARK    2  A    between atoms: _3  and  _4
REMARK    3  A    between atoms: _3  and  _6
REMARK    4  A    between atoms: _6  and  _7
REMARK    5  A    between atoms: _7  and  _8
REMARK    6  A    between atoms: _10  and  _12
REMARK    7  A    between atoms: _12  and  _13
REMARK    8  A    between atoms: _12  and  _15
REMARK    9  A    between atoms: _15  and  _16
REMARK   10  A    between atoms: _16  and  _17
REMARK   11  A    between atoms: _19  and  _21
REMARK   12  A    between atoms: _21  and  _22
REMARK   13  A    between atoms: _21  and  _24
REMARK   14  A    between atoms: _24  and  _25
REMARK   15  A    between atoms: _25  and  _26
REMARK   16  A    between atoms: _26  and  _27
REMARK   17  A    between atoms: _27  and  _28
REMARK   18  A    between atoms: _33  and  _34
REMARK   19  A    between atoms: _39  and  _41
REMARK   20  A    between atoms: _41  and  _42
REMARK   21  A    between atoms: _41  and  _44
REMARK   22  A    between atoms: _47  and  _49
REMARK   23  A    between atoms: _49  and  _50
REMARK   24  A    between atoms: _49  and  _52
REMARK   25  A    between atoms: _52  and  _53
REMARK   26  A    between atoms: _58  and  _60
REMARK   27  A    between atoms: _60  and  _61
REMARK   28  A    between atoms: _60  and  _63
REMARK   29  A    between atoms: _63  and  _64
REMARK   30  A    between atoms: _67  and  _69
REMARK   31  A    between atoms: _69  and  _70
REMARK   32  A    between atoms: _69  and  _72
REMARK   33  A    between atoms: _72  and  _73
REMARK   34  A    between atoms: _79  and  _81
REMARK   35  A    between atoms: _81  and  _82
REMARK   36  A    between atoms: _81  and  _84
REMARK   37  A    between atoms: _84  and  _85
REMARK   38  A    between atoms: _85  and  _86
REMARK   39  A    between atoms: _86  and  _87
REMARK   40  A    between atoms: _87  and  _88
REMARK   41  A    between atoms: _92  and  _94
REMARK   42  A    between atoms: _94  and  _95
REMARK   43  A    between atoms: _94  and  _97
REMARK   44  A    between atoms: _97  and  _98
REMARK   45  A    between atoms: _103  and  _105
REMARK   46  A    between atoms: _105  and  _106
REMARK   47  A    between atoms: _105  and  _108
REMARK   48  A    between atoms: _108  and  _109
REMARK   49  A    between atoms: _112  and  _114
REMARK   50  A    between atoms: _114  and  _115
REMARK   51  A    between atoms: _114  and  _117
REMARK   52  A    between atoms: _117  and  _118
REMARK   53  A    between atoms: _121  and  _123
REMARK   54  A    between atoms: _123  and  _124
REMARK   55  A    between atoms: _123  and  _126
REMARK   56  A    between atoms: _126  and  _127
REMARK   57  A    between atoms: _130  and  _132
REMARK   58  A    between atoms: _132  and  _133
REMARK   59  A    between atoms: _132  and  _135
REMARK   60  A    between atoms: _137  and  _139
REMARK   61  A    between atoms: _139  and  _140
REMARK   62  A    between atoms: _139  and  _142
REMARK   63  A    between atoms: _142  and  _143
REMARK   64  A    between atoms: _143  and  _144
REMARK   65  A    between atoms: _144  and  _145
REMARK   66  A    between atoms: _154  and  _156
REMARK   67  A    between atoms: _156  and  _157
REMARK   68  A    between atoms: _156  and  _159
REMARK   69  A    between atoms: _159  and  _160
REMARK   70  A    between atoms: _160  and  _161
REMARK   71  A    between atoms: _161  and  _162
REMARK   72  A    between atoms: _162  and  _163
REMARK   73  A    between atoms: _167  and  _169
REMARK   74  A    between atoms: _169  and  _170
REMARK   75  A    between atoms: _169  and  _172
REMARK   76  A    between atoms: _172  and  _173
REMARK   77  A    between atoms: _176  and  _178
REMARK   78  A    between atoms: _178  and  _179
REMARK   79  A    between atoms: _178  and  _181
REMARK   80  A    between atoms: _181  and  _182
REMARK   81  A    between atoms: _187  and  _189
REMARK   82  A    between atoms: _189  and  _190
REMARK   83  A    between atoms: _189  and  _192
REMARK   84  A    between atoms: _192  and  _193
REMARK   85  A    between atoms: _199  and  _201
REMARK   86  A    between atoms: _201  and  _202
REMARK   87  A    between atoms: _201  and  _204
REMARK   88  A    between atoms: _204  and  _205
REMARK   89  A    between atoms: _208  and  _210
REMARK   90  A    between atoms: _210  and  _211
REMARK   91  A    between atoms: _214  and  _216
REMARK   92  A    between atoms: _216  and  _217
REMARK   93  A    between atoms: _216  and  _219
REMARK   94  A    between atoms: _219  and  _220
REMARK   95  A    between atoms: _222  and  _224
REMARK   96  A    between atoms: _224  and  _225
REMARK   97  A    between atoms: _224  and  _227
REMARK   98  A    between atoms: _231  and  _233
REMARK   99  A    between atoms: _233  and  _234
REMARK  100  A    between atoms: _233  and  _236
REMARK  101  A    between atoms: _236  and  _237
REMARK  102  A    between atoms: _243  and  _245
REMARK  103  A    between atoms: _245  and  _246
REMARK  104  A    between atoms: _245  and  _248
REMARK  105  A    between atoms: _248  and  _249
REMARK  106  A    between atoms: _249  and  _250
REMARK  107  A    between atoms: _255  and  _257
REMARK  108  A    between atoms: _257  and  _258
REMARK  109  A    between atoms: _257  and  _260
REMARK  110  A    between atoms: _260  and  _261
REMARK                            x       y       z     vdW  Elec       q    Type
REMARK                         _______ _______ _______ _____ _____    ______ ____
ROOT
ATOM      1  CG  LYS A   1      29.313  39.031  -6.163  0.00  0.00    -0.000 C 
ENDROOT
BRANCH   1   2
ATOM      2  CB  LYS A   1      30.721  38.549  -5.855  0.00  0.00    +0.025 C 
BRANCH   2   3
ATOM      3  CA  LYS A   1      31.393  37.749  -6.977  0.00  0.00    +0.133 C 
BRANCH   3   4
ATOM      4  N   LYS A   1      30.638  36.537  -7.262  0.00  0.00    -0.239 NA
ATOM      5  H   LYS A   1      30.826  35.687  -6.693  0.00  0.00    +0.142 HD
ENDBRANCH   3   4
BRANCH   3   6
ATOM      6  C   LYS A   1      32.792  37.374  -6.534  0.00  0.00    +0.224 C 
ATOM      7  O   LYS A   1      33.032  36.235  -6.139  0.00  0.00    -0.287 OA
ENDBRANCH   3   6
ENDBRANCH   2   3
ENDBRANCH   1   2
BRANCH   1   8
ATOM      8  CD  LYS A   1      28.751  39.891  -5.043  0.00  0.00    -0.024 C 
BRANCH   8   9
ATOM      9  CE  LYS A   1      29.402  41.268  -5.020  0.00  0.00    -0.086 C 
BRANCH   9  10
ATOM     10  NZ  LYS A   1      28.905  42.093  -3.881  0.00  0.00    +0.380 N 
ATOM     11  HZ1 LYS A   1      29.123  41.612  -2.985  0.00  0.00    -0.089 HD
ATOM     12  HZ2 LYS A   1      29.371  43.023  -3.899  0.00  0.00    -0.089 HD
ATOM     13  HZ3 LYS A   1      27.876  42.218  -3.968  0.00  0.00    -0.089 HD
ENDBRANCH   9  10
ENDBRANCH   8   9
ENDBRANCH   1   8
TORSDOF 7
REMARK  Name = ../refined-set-2016/3djo/3djo_pocket.pdb
REMARK  110 active torsions:
REMARK  status: ('A' for Active; 'I' for Inactive)
REMARK    1  A    between atoms: _1  and  _3
REMARK    2  A    between atoms: _3  and  _4
REMARK    3  A    between atoms: _3  and  _6
REMARK    4  A    between atoms: _6  and  _7
REMARK    5  A    between atoms: _7  and  _8
REMARK    6  A    between atoms: _10  and  _12
REMARK    7  A    between atoms: _12  and  _13
REMARK    8  A    between atoms: _12  and  _15
REMARK    9  A    between atoms: _15  and  _16
REMARK   10  A    between atoms: _16  and  _17
REMARK   11  A    between atoms: _19  and  _21
REMARK   12  A    between atoms: _21  and  _22
REMARK   13  A    between atoms: _21  and  _24
REMARK   14  A    between atoms: _24  and  _25
REMARK   15  A    between atoms: _25  and  _26
REMARK   16  A    between atoms: _26  and  _27
REMARK   17  A    between atoms: _27  and  _28
REMARK   18  A    between atoms: _33  and  _34
REMARK   19  A    between atoms: _39  and  _41
REMARK   20  A    between atoms: _41  and  _42
REMARK   21  A    between atoms: _41  and  _44
REMARK   22  A    between atoms: _47  and  _49
REMARK   23  A    between atoms: _49  and  _50
REMARK   24  A    between atoms: _49  and  _52
REMARK   25  A    between atoms: _52  and  _53
REMARK   26  A    between atoms: _58  and  _60
REMARK   27  A    between atoms: _60  and  _61
REMARK   28  A    between atoms: _60  and  _63
REMARK   29  A    between atoms: _63  and  _64
REMARK   30  A    between atoms: _67  and  _69
REMARK   31  A    between atoms: _69  and  _70
REMARK   32  A    between atoms: _69  and  _72
REMARK   33  A    between atoms: _72  and  _73
REMARK   34  A    between atoms: _79  and  _81
REMARK   35  A    between atoms: _81  and  _82
REMARK   36  A    between atoms: _81  and  _84
REMARK   37  A    between atoms: _84  and  _85
REMARK   38  A    between atoms: _85  and  _86
REMARK   39  A    between atoms: _86  and  _87
REMARK   40  A    between atoms: _87  and  _88
REMARK   41  A    between atoms: _92  and  _94
REMARK   42  A    between atoms: _94  and  _95
REMARK   43  A    between atoms: _94  and  _97
REMARK   44  A    between atoms: _97  and  _98
REMARK   45  A    between atoms: _103  and  _105
REMARK   46  A    between atoms: _105  and  _106
REMARK   47  A    between atoms: _105  and  _108
REMARK   48  A    between atoms: _108  and  _109
REMARK   49  A    between atoms: _112  and  _114
REMARK   50  A    between atoms: _114  and  _115
REMARK   51  A    between atoms: _114  and  _117
REMARK   52  A    between atoms: _117  and  _118
REMARK   53  A    between atoms: _121  and  _123
REMARK   54  A    between atoms: _123  and  _124
REMARK   55  A    between atoms: _123  and  _126
REMARK   56  A    between atoms: _126  and  _127
REMARK   57  A    between atoms: _130  and  _132
REMARK   58  A    between atoms: _132  and  _133
REMARK   59  A    between atoms: _132  and  _135
REMARK   60  A    between atoms: _137  and  _139
REMARK   61  A    between atoms: _139  and  _140
REMARK   62  A    between atoms: _139  and  _142
REMARK   63  A    between atoms: _142  and  _143
REMARK   64  A    between atoms: _143  and  _144
REMARK   65  A    between atoms: _144  and  _145
REMARK   66  A    between atoms: _154  and  _156
REMARK   67  A    between atoms: _156  and  _157
REMARK   68  A    between atoms: _156  and  _159
REMARK   69  A    between atoms: _159  and  _160
REMARK   70  A    between atoms: _160  and  _161
REMARK   71  A    between atoms: _161  and  _162
REMARK   72  A    between atoms: _162  and  _163
REMARK   73  A    between atoms: _167  and  _169
REMARK   74  A    between atoms: _169  and  _170
REMARK   75  A    between atoms: _169  and  _172
REMARK   76  A    between atoms: _172  and  _173
REMARK   77  A    between atoms: _176  and  _178
REMARK   78  A    between atoms: _178  and  _179
REMARK   79  A    between atoms: _178  and  _181
REMARK   80  A    between atoms: _181  and  _182
REMARK   81  A    between atoms: _187  and  _189
REMARK   82  A    between atoms: _189  and  _190
REMARK   83  A    between atoms: _189  and  _192
REMARK   84  A    between atoms: _192  and  _193
REMARK   85  A    between atoms: _199  and  _201
REMARK   86  A    between atoms: _201  and  _202
REMARK   87  A    between atoms: _201  and  _204
REMARK   88  A    between atoms: _204  and  _205
REMARK   89  A    between atoms: _208  and  _210
REMARK   90  A    between atoms: _210  and  _211
REMARK   91  A    between atoms: _214  and  _216
REMARK   92  A    between atoms: _216  and  _217
REMARK   93  A    between atoms: _216  and  _219
REMARK   94  A    between atoms: _219  and  _220
REMARK   95  A    between atoms: _222  and  _224
REMARK   96  A    between atoms: _224  and  _225
REMARK   97  A    between atoms: _224  and  _227
REMARK   98  A    between atoms: _231  and  _233
REMARK   99  A    between atoms: _233  and  _234
REMARK  100  A    between atoms: _233  and  _236
REMARK  101  A    between atoms: _236  and  _237
REMARK  102  A    between atoms: _243  and  _245
REMARK  103  A    between atoms: _245  and  _246
REMARK  104  A    between atoms: _245  and  _248
REMARK  105  A    between atoms: _248  and  _249
REMARK  106  A    between atoms: _249  and  _250
REMARK  107  A    between atoms: _255  and  _257
REMARK  108  A    between atoms: _257  and  _258
REMARK  109  A    between atoms: _257  and  _260
REMARK  110  A    between atoms: _260  and  _261
REMARK                            x       y       z     vdW  Elec       q    Type
REMARK                         _______ _______ _______ _____ _____    ______ ____
ROOT
ATOM      1  CA  ILE A   1      37.646  39.356   0.215  0.00  0.00    +0.133 C 
ENDROOT
BRANCH   1   2
ATOM      2  N   ILE A   1      36.542  38.798  -0.542  0.00  0.00    -0.239 NA
ATOM      3  H   ILE A   1      35.574  38.901  -0.177  0.00  0.00    +0.142 HD
ENDBRANCH   1   2
BRANCH   1   4
ATOM      4  C   ILE A   1      37.640  38.718   1.586  0.00  0.00    +0.224 C 
ATOM      5  O   ILE A   1      36.632  38.768   2.295  0.00  0.00    -0.287 OA
ENDBRANCH   1   4
BRANCH   1   6
ATOM      6  CB  ILE A   1      37.563  40.899   0.323  0.00  0.00    +0.023 C 
ATOM      7  CG2 ILE A   1      38.702  41.444   1.185  0.00  0.00    +0.002 C 
BRANCH   6   8
ATOM      8  CG1 ILE A   1      37.624  41.521  -1.078  0.00  0.00    +0.002 C 
ATOM      9  CD1 ILE A   1      37.217  43.004  -1.126  0.00  0.00    +0.000 C 
ENDBRANCH   6   8
ENDBRANCH   1   6
TORSDOF 4
REMARK  Name = ../refined-set-2016/3djo/3djo_pocket.pdb
REMARK  110 active torsions:
REMARK  status: ('A' for Active; 'I' for Inactive)
REMARK    1  A    between atoms: _1  and  _3
REMARK    2  A    between atoms: _3  and  _4
REMARK    3  A    between atoms: _3  and  _6
REMARK    4  A    between atoms: _6  and  _7
REMARK    5  A    between atoms: _7  and  _8
REMARK    6  A    between atoms: _10  and  _12
REMARK    7  A    between atoms: _12  and  _13
REMARK    8  A    between atoms: _12  and  _15
REMARK    9  A    between atoms: _15  and  _16
REMARK   10  A    between atoms: _16  and  _17
REMARK   11  A    between atoms: _19  and  _21
REMARK   12  A    between atoms: _21  and  _22
REMARK   13  A    between atoms: _21  and  _24
REMARK   14  A    between atoms: _24  and  _25
REMARK   15  A    between atoms: _25  and  _26
REMARK   16  A    between atoms: _26  and  _27
REMARK   17  A    between atoms: _27  and  _28
REMARK   18  A    between atoms: _33  and  _34
REMARK   19  A    between atoms: _39  and  _41
REMARK   20  A    between atoms: _41  and  _42
REMARK   21  A    between atoms: _41  and  _44
REMARK   22  A    between atoms: _47  and  _49
REMARK   23  A    between atoms: _49  and  _50
REMARK   24  A    between atoms: _49  and  _52
REMARK   25  A    between atoms: _52  and  _53
REMARK   26  A    between atoms: _58  and  _60
REMARK   27  A    between atoms: _60  and  _61
REMARK   28  A    between atoms: _60  and  _63
REMARK   29  A    between atoms: _63  and  _64
REMARK   30  A    between atoms: _67  and  _69
REMARK   31  A    between atoms: _69  and  _70
REMARK   32  A    between atoms: _69  and  _72
REMARK   33  A    between atoms: _72  and  _73
REMARK   34  A    between atoms: _79  and  _81
REMARK   35  A    between atoms: _81  and  _82
REMARK   36  A    between atoms: _81  and  _84
REMARK   37  A    between atoms: _84  and  _85
REMARK   38  A    between atoms: _85  and  _86
REMARK   39  A    between atoms: _86  and  _87
REMARK   40  A    between atoms: _87  and  _88
REMARK   41  A    between atoms: _92  and  _94
REMARK   42  A    between atoms: _94  and  _95
REMARK   43  A    between atoms: _94  and  _97
REMARK   44  A    between atoms: _97  and  _98
REMARK   45  A    between atoms: _103  and  _105
REMARK   46  A    between atoms: _105  and  _106
REMARK   47  A    between atoms: _105  and  _108
REMARK   48  A    between atoms: _108  and  _109
REMARK   49  A    between atoms: _112  and  _114
REMARK   50  A    between atoms: _114  and  _115
REMARK   51  A    between atoms: _114  and  _117
REMARK   52  A    between atoms: _117  and  _118
REMARK   53  A    between atoms: _121  and  _123
REMARK   54  A    between atoms: _123  and  _124
REMARK   55  A    between atoms: _123  and  _126
REMARK   56  A    between atoms: _126  and  _127
REMARK   57  A    between atoms: _130  and  _132
REMARK   58  A    between atoms: _132  and  _133
REMARK   59  A    between atoms: _132  and  _135
REMARK   60  A    between atoms: _137  and  _139
REMARK   61  A    between atoms: _139  and  _140
REMARK   62  A    between atoms: _139  and  _142
REMARK   63  A    between atoms: _142  and  _143
REMARK   64  A    between atoms: _143  and  _144
REMARK   65  A    between atoms: _144  and  _145
REMARK   66  A    between atoms: _154  and  _156
REMARK   67  A    between atoms: _156  and  _157
REMARK   68  A    between atoms: _156  and  _159
REMARK   69  A    between atoms: _159  and  _160
REMARK   70  A    between atoms: _160  and  _161
REMARK   71  A    between atoms: _161  and  _162
REMARK   72  A    between atoms: _162  and  _163
REMARK   73  A    between atoms: _167  and  _169
REMARK   74  A    between atoms: _169  and  _170
REMARK   75  A    between atoms: _169  and  _172
REMARK   76  A    between atoms: _172  and  _173
REMARK   77  A    between atoms: _176  and  _178
REMARK   78  A    between atoms: _178  and  _179
REMARK   79  A    between atoms: _178  and  _181
REMARK   80  A    between atoms: _181  and  _182
REMARK   81  A    between atoms: _187  and  _189
REMARK   82  A    between atoms: _189  and  _190
REMARK   83  A    between atoms: _189  and  _192
REMARK   84  A    between atoms: _192  and  _193
REMARK   85  A    between atoms: _199  and  _201
REMARK   86  A    between atoms: _201  and  _202
REMARK   87  A    between atoms: _201  and  _204
REMARK   88  A    between atoms: _204  and  _205
REMARK   89  A    between atoms: _208  and  _210
REMARK   90  A    between atoms: _210  and  _211
REMARK   91  A    between atoms: _214  and  _216
REMARK   92  A    between atoms: _216  and  _217
REMARK   93  A    between atoms: _216  and  _219
REMARK   94  A    between atoms: _219  and  _220
REMARK   95  A    between atoms: _222  and  _224
REMARK   96  A    between atoms: _224  and  _225
REMARK   97  A    between atoms: _224  and  _227
REMARK   98  A    between atoms: _231  and  _233
REMARK   99  A    between atoms: _233  and  _234
REMARK  100  A    between atoms: _233  and  _236
REMARK  101  A    between atoms: _236  and  _237
REMARK  102  A    between atoms: _243  and  _245
REMARK  103  A    between atoms: _245  and  _246
REMARK  104  A    between atoms: _245  and  _248
REMARK  105  A    between atoms: _248  and  _249
REMARK  106  A    between atoms: _249  and  _250
REMARK  107  A    between atoms: _255  and  _257
REMARK  108  A    between atoms: _257  and  _258
REMARK  109  A    between atoms: _257  and  _260
REMARK  110  A    between atoms: _260  and  _261
REMARK                            x       y       z     vdW  Elec       q    Type
REMARK                         _______ _______ _______ _____ _____    ______ ____
ROOT
ATOM      1  CA  ASP A   3      35.326  40.634   4.873  0.00  0.00    +0.160 C 
ENDROOT
BRANCH   1   4
ATOM      2  C   PHE A   2      34.756  38.412   5.655  0.00  0.00    +0.241 C 
ATOM      3  O   PHE A   2      33.947  38.849   6.477  0.00  0.00    -0.273 OA
ATOM      4  N   ASP A   3      35.417  39.187   4.797  0.00  0.00    -0.297 N 
ATOM      5  H   ASP A   3      36.007  38.749   4.061  0.00  0.00    +0.150 HD
BRANCH   2   6
ATOM      6  CA  PHE A   2      35.056  36.925   5.588  0.00  0.00    +0.153 C 
BRANCH   6   8
ATOM      7  C   HIS A   1      36.916  36.496   7.064  0.00  0.00    +0.239 C 
ATOM      8  N   PHE A   2      35.598  36.543   6.890  0.00  0.00    -0.297 N 
ATOM      9  H   PHE A   2      34.958  36.309   7.675  0.00  0.00    +0.150 HD
ATOM     10  O   HIS A   1      37.708  36.581   6.128  0.00  0.00    -0.274 OA
BRANCH   7  11
ATOM     11  CA  HIS A   1      37.434  36.278   8.486  0.00  0.00    +0.151 C 
BRANCH  11  12
ATOM     12  N   HIS A   1      38.556  35.333   8.429  0.00  0.00    -0.238 NA
ATOM     13  H   HIS A   1      39.159  35.329   7.582  0.00  0.00    +0.142 HD
ENDBRANCH  11  12
BRANCH  11  14
ATOM     14  CB  HIS A   1      37.944  37.575   9.143  0.00  0.00    +0.074 C 
BRANCH  14  15
ATOM     15  CG  HIS A   1      37.132  38.801   8.865  0.00  0.00    +0.082 A 
ATOM     16  ND1 HIS A   1      36.001  39.126   9.584  0.00  0.00    -0.227 NA
ATOM     17  CE1 HIS A   1      35.519  40.275   9.146  0.00  0.00    +0.199 A 
ATOM     18  NE2 HIS A   1      36.315  40.723   8.191  0.00  0.00    -0.221 NA
ATOM     19  CD2 HIS A   1      37.337  39.827   8.004  0.00  0.00    +0.115 A 
ENDBRANCH  14  15
ENDBRANCH  11  14
ENDBRANCH   7  11
ENDBRANCH   6   8
BRANCH   6  20
ATOM     20  CB  PHE A   2      33.789  36.141   5.229  0.00  0.00    +0.055 C 
BRANCH  20  21
ATOM     21  CG  PHE A   2      33.384  36.287   3.789  0.00  0.00    -0.020 A 
ATOM     22  CD2 PHE A   2      32.760  37.450   3.338  0.00  0.00    -0.004 A 
ATOM     23  CE2 PHE A   2      32.392  37.598   1.992  0.00  0.00    -0.000 A 
ATOM     24  CZ  PHE A   2      32.666  36.571   1.084  0.00  0.00    -0.000 A 
ATOM     25  CE1 PHE A   2      33.303  35.404   1.527  0.00  0.00    -0.000 A 
ATOM     26  CD1 PHE A   2      33.652  35.272   2.878  0.00  0.00    -0.004 A 
ENDBRANCH  20  21
ENDBRANCH   6  20
ENDBRANCH   2   6
ENDBRANCH   1   4
BRANCH   1  27
ATOM     27  C   ASP A   3      34.262  41.273   3.993  0.00  0.00    +0.241 C 
ATOM     28  O   ASP A   3      33.517  42.134   4.454  0.00  0.00    -0.273 OA
ATOM     29  N   ALA A   4      34.208  40.867   2.731  0.00  0.00    -0.297 N 
ATOM     30  H   ALA A   4      34.761  40.034   2.446  0.00  0.00    +0.150 HD
BRANCH  29  31
ATOM     31  CA  ALA A   4      33.400  41.550   1.734  0.00  0.00    +0.149 C 
ATOM     32  CB  ALA A   4      34.034  42.899   1.401  0.00  0.00    +0.031 C 
BRANCH  31  33
ATOM     33  C   ALA A   4      33.303  40.712   0.469  0.00  0.00    +0.241 C 
ATOM     34  O   ALA A   4      34.057  39.760   0.285  0.00  0.00    -0.273 OA
ATOM     35  N   SER A   5      32.370  41.085  -0.401  0.00  0.00    -0.295 N 
ATOM     36  H   SER A   5      31.641  41.764  -0.102  0.00  0.00    +0.150 HD
BRANCH  35  37
ATOM     37  CA  SER A   5      32.342  40.568  -1.759  0.00  0.00    +0.178 C 
BRANCH  37  38
ATOM     38  C   SER A   5      32.301  41.762  -2.694  0.00  0.00    +0.243 C 
ATOM     39  O   SER A   5      31.772  42.817  -2.337  0.00  0.00    -0.273 OA
ATOM     40  N   VAL A   6      32.874  41.609  -3.880  0.00  0.00    -0.295 N 
ATOM     41  H   VAL A   6      33.279  40.687  -4.142  0.00  0.00    +0.150 HD
BRANCH  40  42
ATOM     42  CA  VAL A   6      32.942  42.721  -4.821  0.00  0.00    +0.176 C 
BRANCH  42  43
ATOM     43  C   VAL A   6      32.689  42.255  -6.251  0.00  0.00    +0.382 C 
ATOM     44  OXT VAL A   6      32.893  41.088  -6.581  0.00  0.00    -0.244 OA
ATOM     45  O   VAL A   6      32.254  43.034  -7.105  0.00  0.00    -0.244 OA
ENDBRANCH  42  43
BRANCH  42  46
ATOM     46  CB  VAL A   6      34.276  43.531  -4.671  0.00  0.00    +0.029 C 
ATOM     47  CG2 VAL A   6      35.495  42.658  -4.949  0.00  0.00    +0.002 C 
ATOM     48  CG1 VAL A   6      34.273  44.778  -5.555  0.00  0.00    +0.002 C 
ENDBRANCH  42  46
ENDBRANCH  40  42
ENDBRANCH  37  38
BRANCH  37  49
ATOM     49  CB  SER A   5      31.148  39.641  -1.984  0.00  0.00    +0.166 C 
BRANCH  49  50
ATOM     50  OG  SER A   5      29.918  40.341  -1.873  0.00  0.00    -0.380 OA
ATOM     51  H   SER A   5      29.844  40.734  -0.967  0.00  0.00    +0.211 HD
ENDBRANCH  49  50
ENDBRANCH  37  49
ENDBRANCH  35  37
ENDBRANCH  31  33
ENDBRANCH  29  31
ENDBRANCH   1  27
BRANCH   1  52
ATOM     52  CB  ASP A   3      36.687  41.273   4.590  0.00  0.00    +0.143 C 
BRANCH  52  53
ATOM     53  CG  ASP A   3      36.793  42.673   5.149  0.00  0.00    +0.367 C 
ATOM     54  OD2 ASP A   3      36.564  42.840   6.369  0.00  0.00    -0.246 OA
ATOM     55  OD1 ASP A   3      37.111  43.609   4.390  0.00  0.00    -0.246 OA
ENDBRANCH  52  53
ENDBRANCH   1  52
TORSDOF 21
REMARK  Name = ../refined-set-2016/3djo/3djo_pocket.pdb
REMARK  110 active torsions:
REMARK  status: ('A' for Active; 'I' for Inactive)
REMARK    1  A    between atoms: _1  and  _3
REMARK    2  A    between atoms: _3  and  _4
REMARK    3  A    between atoms: _3  and  _6
REMARK    4  A    between atoms: _6  and  _7
REMARK    5  A    between atoms: _7  and  _8
REMARK    6  A    between atoms: _10  and  _12
REMARK    7  A    between atoms: _12  and  _13
REMARK    8  A    between atoms: _12  and  _15
REMARK    9  A    between atoms: _15  and  _16
REMARK   10  A    between atoms: _16  and  _17
REMARK   11  A    between atoms: _19  and  _21
REMARK   12  A    between atoms: _21  and  _22
REMARK   13  A    between atoms: _21  and  _24
REMARK   14  A    between atoms: _24  and  _25
REMARK   15  A    between atoms: _25  and  _26
REMARK   16  A    between atoms: _26  and  _27
REMARK   17  A    between atoms: _27  and  _28
REMARK   18  A    between atoms: _33  and  _34
REMARK   19  A    between atoms: _39  and  _41
REMARK   20  A    between atoms: _41  and  _42
REMARK   21  A    between atoms: _41  and  _44
REMARK   22  A    between atoms: _47  and  _49
REMARK   23  A    between atoms: _49  and  _50
REMARK   24  A    between atoms: _49  and  _52
REMARK   25  A    between atoms: _52  and  _53
REMARK   26  A    between atoms: _58  and  _60
REMARK   27  A    between atoms: _60  and  _61
REMARK   28  A    between atoms: _60  and  _63
REMARK   29  A    between atoms: _63  and  _64
REMARK   30  A    between atoms: _67  and  _69
REMARK   31  A    between atoms: _69  and  _70
REMARK   32  A    between atoms: _69  and  _72
REMARK   33  A    between atoms: _72  and  _73
REMARK   34  A    between atoms: _79  and  _81
REMARK   35  A    between atoms: _81  and  _82
REMARK   36  A    between atoms: _81  and  _84
REMARK   37  A    between atoms: _84  and  _85
REMARK   38  A    between atoms: _85  and  _86
REMARK   39  A    between atoms: _86  and  _87
REMARK   40  A    between atoms: _87  and  _88
REMARK   41  A    between atoms: _92  and  _94
REMARK   42  A    between atoms: _94  and  _95
REMARK   43  A    between atoms: _94  and  _97
REMARK   44  A    between atoms: _97  and  _98
REMARK   45  A    between atoms: _103  and  _105
REMARK   46  A    between atoms: _105  and  _106
REMARK   47  A    between atoms: _105  and  _108
REMARK   48  A    between atoms: _108  and  _109
REMARK   49  A    between atoms: _112  and  _114
REMARK   50  A    between atoms: _114  and  _115
REMARK   51  A    between atoms: _114  and  _117
REMARK   52  A    between atoms: _117  and  _118
REMARK   53  A    between atoms: _121  and  _123
REMARK   54  A    between atoms: _123  and  _124
REMARK   55  A    between atoms: _123  and  _126
REMARK   56  A    between atoms: _126  and  _127
REMARK   57  A    between atoms: _130  and  _132
REMARK   58  A    between atoms: _132  and  _133
REMARK   59  A    between atoms: _132  and  _135
REMARK   60  A    between atoms: _137  and  _139
REMARK   61  A    between atoms: _139  and  _140
REMARK   62  A    between atoms: _139  and  _142
REMARK   63  A    between atoms: _142  and  _143
REMARK   64  A    between atoms: _143  and  _144
REMARK   65  A    between atoms: _144  and  _145
REMARK   66  A    between atoms: _154  and  _156
REMARK   67  A    between atoms: _156  and  _157
REMARK   68  A    between atoms: _156  and  _159
REMARK   69  A    between atoms: _159  and  _160
REMARK   70  A    between atoms: _160  and  _161
REMARK   71  A    between atoms: _161  and  _162
REMARK   72  A    between atoms: _162  and  _163
REMARK   73  A    between atoms: _167  and  _169
REMARK   74  A    between atoms: _169  and  _170
REMARK   75  A    between atoms: _169  and  _172
REMARK   76  A    between atoms: _172  and  _173
REMARK   77  A    between atoms: _176  and  _178
REMARK   78  A    between atoms: _178  and  _179
REMARK   79  A    between atoms: _178  and  _181
REMARK   80  A    between atoms: _181  and  _182
REMARK   81  A    between atoms: _187  and  _189
REMARK   82  A    between atoms: _189  and  _190
REMARK   83  A    between atoms: _189  and  _192
REMARK   84  A    between atoms: _192  and  _193
REMARK   85  A    between atoms: _199  and  _201
REMARK   86  A    between atoms: _201  and  _202
REMARK   87  A    between atoms: _201  and  _204
REMARK   88  A    between atoms: _204  and  _205
REMARK   89  A    between atoms: _208  and  _210
REMARK   90  A    between atoms: _210  and  _211
REMARK   91  A    between atoms: _214  and  _216
REMARK   92  A    between atoms: _216  and  _217
REMARK   93  A    between atoms: _216  and  _219
REMARK   94  A    between atoms: _219  and  _220
REMARK   95  A    between atoms: _222  and  _224
REMARK   96  A    between atoms: _224  and  _225
REMARK   97  A    between atoms: _224  and  _227
REMARK   98  A    between atoms: _231  and  _233
REMARK   99  A    between atoms: _233  and  _234
REMARK  100  A    between atoms: _233  and  _236
REMARK  101  A    between atoms: _236  and  _237
REMARK  102  A    between atoms: _243  and  _245
REMARK  103  A    between atoms: _245  and  _246
REMARK  104  A    between atoms: _245  and  _248
REMARK  105  A    between atoms: _248  and  _249
REMARK  106  A    between atoms: _249  and  _250
REMARK  107  A    between atoms: _255  and  _257
REMARK  108  A    between atoms: _257  and  _258
REMARK  109  A    between atoms: _257  and  _260
REMARK  110  A    between atoms: _260  and  _261
REMARK                            x       y       z     vdW  Elec       q    Type
REMARK                         _______ _______ _______ _____ _____    ______ ____
ROOT
ATOM      1  CB  PHE A   1      37.136  30.863   8.351  0.00  0.00    +0.051 C 
ENDROOT
BRANCH   1   2
ATOM      2  CG  PHE A   1      36.917  31.317   6.931  0.00  0.00    -0.020 A 
ATOM      3  CD2 PHE A   1      36.726  32.668   6.643  0.00  0.00    -0.004 A 
ATOM      4  CE2 PHE A   1      36.514  33.102   5.327  0.00  0.00    -0.000 A 
ATOM      5  CZ  PHE A   1      36.480  32.173   4.286  0.00  0.00    -0.000 A 
ATOM      6  CE1 PHE A   1      36.657  30.814   4.564  0.00  0.00    -0.000 A 
ATOM      7  CD1 PHE A   1      36.882  30.396   5.885  0.00  0.00    -0.004 A 
ENDBRANCH   1   2
BRANCH   1   8
ATOM      8  CA  PHE A   1      35.845  30.476   9.067  0.00  0.00    +0.137 C 
BRANCH   8   9
ATOM      9  N   PHE A   1      36.090  30.049  10.440  0.00  0.00    -0.239 NA
ATOM     10  H   PHE A   1      37.066  30.002  10.796  0.00  0.00    +0.142 HD
ENDBRANCH   8   9
BRANCH   8  11
ATOM     11  C   PHE A   1      35.142  29.376   8.275  0.00  0.00    +0.224 C 
ATOM     12  O   PHE A   1      34.169  29.644   7.567  0.00  0.00    -0.287 OA
ENDBRANCH   8  11
ENDBRANCH   1   8
TORSDOF 4
REMARK  Name = ../refined-set-2016/3djo/3djo_pocket.pdb
REMARK  110 active torsions:
REMARK  status: ('A' for Active; 'I' for Inactive)
REMARK    1  A    between atoms: _1  and  _3
REMARK    2  A    between atoms: _3  and  _4
REMARK    3  A    between atoms: _3  and  _6
REMARK    4  A    between atoms: _6  and  _7
REMARK    5  A    between atoms: _7  and  _8
REMARK    6  A    between atoms: _10  and  _12
REMARK    7  A    between atoms: _12  and  _13
REMARK    8  A    between atoms: _12  and  _15
REMARK    9  A    between atoms: _15  and  _16
REMARK   10  A    between atoms: _16  and  _17
REMARK   11  A    between atoms: _19  and  _21
REMARK   12  A    between atoms: _21  and  _22
REMARK   13  A    between atoms: _21  and  _24
REMARK   14  A    between atoms: _24  and  _25
REMARK   15  A    between atoms: _25  and  _26
REMARK   16  A    between atoms: _26  and  _27
REMARK   17  A    between atoms: _27  and  _28
REMARK   18  A    between atoms: _33  and  _34
REMARK   19  A    between atoms: _39  and  _41
REMARK   20  A    between atoms: _41  and  _42
REMARK   21  A    between atoms: _41  and  _44
REMARK   22  A    between atoms: _47  and  _49
REMARK   23  A    between atoms: _49  and  _50
REMARK   24  A    between atoms: _49  and  _52
REMARK   25  A    between atoms: _52  and  _53
REMARK   26  A    between atoms: _58  and  _60
REMARK   27  A    between atoms: _60  and  _61
REMARK   28  A    between atoms: _60  and  _63
REMARK   29  A    between atoms: _63  and  _64
REMARK   30  A    between atoms: _67  and  _69
REMARK   31  A    between atoms: _69  and  _70
REMARK   32  A    between atoms: _69  and  _72
REMARK   33  A    between atoms: _72  and  _73
REMARK   34  A    between atoms: _79  and  _81
REMARK   35  A    between atoms: _81  and  _82
REMARK   36  A    between atoms: _81  and  _84
REMARK   37  A    between atoms: _84  and  _85
REMARK   38  A    between atoms: _85  and  _86
REMARK   39  A    between atoms: _86  and  _87
REMARK   40  A    between atoms: _87  and  _88
REMARK   41  A    between atoms: _92  and  _94
REMARK   42  A    between atoms: _94  and  _95
REMARK   43  A    between atoms: _94  and  _97
REMARK   44  A    between atoms: _97  and  _98
REMARK   45  A    between atoms: _103  and  _105
REMARK   46  A    between atoms: _105  and  _106
REMARK   47  A    between atoms: _105  and  _108
REMARK   48  A    between atoms: _108  and  _109
REMARK   49  A    between atoms: _112  and  _114
REMARK   50  A    between atoms: _114  and  _115
REMARK   51  A    between atoms: _114  and  _117
REMARK   52  A    between atoms: _117  and  _118
REMARK   53  A    between atoms: _121  and  _123
REMARK   54  A    between atoms: _123  and  _124
REMARK   55  A    between atoms: _123  and  _126
REMARK   56  A    between atoms: _126  and  _127
REMARK   57  A    between atoms: _130  and  _132
REMARK   58  A    between atoms: _132  and  _133
REMARK   59  A    between atoms: _132  and  _135
REMARK   60  A    between atoms: _137  and  _139
REMARK   61  A    between atoms: _139  and  _140
REMARK   62  A    between atoms: _139  and  _142
REMARK   63  A    between atoms: _142  and  _143
REMARK   64  A    between atoms: _143  and  _144
REMARK   65  A    between atoms: _144  and  _145
REMARK   66  A    between atoms: _154  and  _156
REMARK   67  A    between atoms: _156  and  _157
REMARK   68  A    between atoms: _156  and  _159
REMARK   69  A    between atoms: _159  and  _160
REMARK   70  A    between atoms: _160  and  _161
REMARK   71  A    between atoms: _161  and  _162
REMARK   72  A    between atoms: _162  and  _163
REMARK   73  A    between atoms: _167  and  _169
REMARK   74  A    between atoms: _169  and  _170
REMARK   75  A    between atoms: _169  and  _172
REMARK   76  A    between atoms: _172  and  _173
REMARK   77  A    between atoms: _176  and  _178
REMARK   78  A    between atoms: _178  and  _179
REMARK   79  A    between atoms: _178  and  _181
REMARK   80  A    between atoms: _181  and  _182
REMARK   81  A    between atoms: _187  and  _189
REMARK   82  A    between atoms: _189  and  _190
REMARK   83  A    between atoms: _189  and  _192
REMARK   84  A    between atoms: _192  and  _193
REMARK   85  A    between atoms: _199  and  _201
REMARK   86  A    between atoms: _201  and  _202
REMARK   87  A    between atoms: _201  and  _204
REMARK   88  A    between atoms: _204  and  _205
REMARK   89  A    between atoms: _208  and  _210
REMARK   90  A    between atoms: _210  and  _211
REMARK   91  A    between atoms: _214  and  _216
REMARK   92  A    between atoms: _216  and  _217
REMARK   93  A    between atoms: _216  and  _219
REMARK   94  A    between atoms: _219  and  _220
REMARK   95  A    between atoms: _222  and  _224
REMARK   96  A    between atoms: _224  and  _225
REMARK   97  A    between atoms: _224  and  _227
REMARK   98  A    between atoms: _231  and  _233
REMARK   99  A    between atoms: _233  and  _234
REMARK  100  A    between atoms: _233  and  _236
REMARK  101  A    between atoms: _236  and  _237
REMARK  102  A    between atoms: _243  and  _245
REMARK  103  A    between atoms: _245  and  _246
REMARK  104  A    between atoms: _245  and  _248
REMARK  105  A    between atoms: _248  and  _249
REMARK  106  A    between atoms: _249  and  _250
REMARK  107  A    between atoms: _255  and  _257
REMARK  108  A    between atoms: _257  and  _258
REMARK  109  A    between atoms: _257  and  _260
REMARK  110  A    between atoms: _260  and  _261
REMARK                            x       y       z     vdW  Elec       q    Type
REMARK                         _______ _______ _______ _____ _____    ______ ____
ROOT
ATOM      1  C   GLN A   1      30.496  30.464   7.678  0.00  0.00    +0.238 C 
ATOM      2  O   GLN A   1      29.472  30.989   7.239  0.00  0.00    -0.274 OA
ATOM      3  N   HIS A   2      31.521  30.105   6.906  0.00  0.00    -0.298 N 
ATOM      4  H   HIS A   2      32.268  29.492   7.291  0.00  0.00    +0.150 HD
ENDROOT
BRANCH   1   5
ATOM      5  CA  GLN A   1      30.653  30.249   9.171  0.00  0.00    +0.145 C 
BRANCH   5   6
ATOM      6  N   GLN A   1      31.515  29.129   9.494  0.00  0.00    -0.238 NA
ATOM      7  H   GLN A   1      32.503  29.296   9.773  0.00  0.00    +0.142 HD
ENDBRANCH   5   6
BRANCH   5   8
ATOM      8  CB  GLN A   1      31.211  31.531   9.772  0.00  0.00    +0.036 C 
BRANCH   8   9
ATOM      9  CG  GLN A   1      31.109  31.607  11.263  0.00  0.00    +0.087 C 
BRANCH   9  10
ATOM     10  CD  GLN A   1      31.397  33.006  11.755  0.00  0.00    +0.219 C 
ATOM     11  NE2 GLN A   1      30.491  33.553  12.547  0.00  0.00    -0.329 N 
ATOM     12 HE21 GLN A   1      30.625  34.522  12.899  0.00  0.00    +0.145 HD
ATOM     13 HE22 GLN A   1      29.644  33.014  12.818  0.00  0.00    +0.145 HD
ATOM     14  OE1 GLN A   1      32.414  33.597  11.405  0.00  0.00    -0.275 OA
ENDBRANCH   9  10
ENDBRANCH   8   9
ENDBRANCH   5   8
ENDBRANCH   1   5
BRANCH   3  15
ATOM     15  CA  HIS A   2      31.604  30.568   5.515  0.00  0.00    +0.143 C 
BRANCH  15  16
ATOM     16  C   HIS A   2      31.777  29.530   4.417  0.00  0.00    +0.227 C 
ATOM     17  O   HIS A   2      31.674  29.878   3.247  0.00  0.00    -0.286 OA
ENDBRANCH  15  16
BRANCH  15  18
ATOM     18  CB  HIS A   2      32.693  31.632   5.373  0.00  0.00    +0.075 C 
BRANCH  18  19
ATOM     19  CG  HIS A   2      32.517  32.793   6.303  0.00  0.00    +0.082 A 
ATOM     20  CD2 HIS A   2      33.285  33.240   7.328  0.00  0.00    +0.115 A 
ATOM     21  NE2 HIS A   2      32.656  34.345   7.848  0.00  0.00    -0.221 NA
ATOM     22  CE1 HIS A   2      31.549  34.573   7.168  0.00  0.00    +0.199 A 
ATOM     23  ND1 HIS A   2      31.433  33.644   6.234  0.00  0.00    -0.227 NA
ENDBRANCH  18  19
ENDBRANCH  15  18
ENDBRANCH   3  15
TORSDOF 9
REMARK  Name = ../refined-set-2016/3djo/3djo_pocket.pdb
REMARK  110 active torsions:
REMARK  status: ('A' for Active; 'I' for Inactive)
REMARK    1  A    between atoms: _1  and  _3
REMARK    2  A    between atoms: _3  and  _4
REMARK    3  A    between atoms: _3  and  _6
REMARK    4  A    between atoms: _6  and  _7
REMARK    5  A    between atoms: _7  and  _8
REMARK    6  A    between atoms: _10  and  _12
REMARK    7  A    between atoms: _12  and  _13
REMARK    8  A    between atoms: _12  and  _15
REMARK    9  A    between atoms: _15  and  _16
REMARK   10  A    between atoms: _16  and  _17
REMARK   11  A    between atoms: _19  and  _21
REMARK   12  A    between atoms: _21  and  _22
REMARK   13  A    between atoms: _21  and  _24
REMARK   14  A    between atoms: _24  and  _25
REMARK   15  A    between atoms: _25  and  _26
REMARK   16  A    between atoms: _26  and  _27
REMARK   17  A    between atoms: _27  and  _28
REMARK   18  A    between atoms: _33  and  _34
REMARK   19  A    between atoms: _39  and  _41
REMARK   20  A    between atoms: _41  and  _42
REMARK   21  A    between atoms: _41  and  _44
REMARK   22  A    between atoms: _47  and  _49
REMARK   23  A    between atoms: _49  and  _50
REMARK   24  A    between atoms: _49  and  _52
REMARK   25  A    between atoms: _52  and  _53
REMARK   26  A    between atoms: _58  and  _60
REMARK   27  A    between atoms: _60  and  _61
REMARK   28  A    between atoms: _60  and  _63
REMARK   29  A    between atoms: _63  and  _64
REMARK   30  A    between atoms: _67  and  _69
REMARK   31  A    between atoms: _69  and  _70
REMARK   32  A    between atoms: _69  and  _72
REMARK   33  A    between atoms: _72  and  _73
REMARK   34  A    between atoms: _79  and  _81
REMARK   35  A    between atoms: _81  and  _82
REMARK   36  A    between atoms: _81  and  _84
REMARK   37  A    between atoms: _84  and  _85
REMARK   38  A    between atoms: _85  and  _86
REMARK   39  A    between atoms: _86  and  _87
REMARK   40  A    between atoms: _87  and  _88
REMARK   41  A    between atoms: _92  and  _94
REMARK   42  A    between atoms: _94  and  _95
REMARK   43  A    between atoms: _94  and  _97
REMARK   44  A    between atoms: _97  and  _98
REMARK   45  A    between atoms: _103  and  _105
REMARK   46  A    between atoms: _105  and  _106
REMARK   47  A    between atoms: _105  and  _108
REMARK   48  A    between atoms: _108  and  _109
REMARK   49  A    between atoms: _112  and  _114
REMARK   50  A    between atoms: _114  and  _115
REMARK   51  A    between atoms: _114  and  _117
REMARK   52  A    between atoms: _117  and  _118
REMARK   53  A    between atoms: _121  and  _123
REMARK   54  A    between atoms: _123  and  _124
REMARK   55  A    between atoms: _123  and  _126
REMARK   56  A    between atoms: _126  and  _127
REMARK   57  A    between atoms: _130  and  _132
REMARK   58  A    between atoms: _132  and  _133
REMARK   59  A    between atoms: _132  and  _135
REMARK   60  A    between atoms: _137  and  _139
REMARK   61  A    between atoms: _139  and  _140
REMARK   62  A    between atoms: _139  and  _142
REMARK   63  A    between atoms: _142  and  _143
REMARK   64  A    between atoms: _143  and  _144
REMARK   65  A    between atoms: _144  and  _145
REMARK   66  A    between atoms: _154  and  _156
REMARK   67  A    between atoms: _156  and  _157
REMARK   68  A    between atoms: _156  and  _159
REMARK   69  A    between atoms: _159  and  _160
REMARK   70  A    between atoms: _160  and  _161
REMARK   71  A    between atoms: _161  and  _162
REMARK   72  A    between atoms: _162  and  _163
REMARK   73  A    between atoms: _167  and  _169
REMARK   74  A    between atoms: _169  and  _170
REMARK   75  A    between atoms: _169  and  _172
REMARK   76  A    between atoms: _172  and  _173
REMARK   77  A    between atoms: _176  and  _178
REMARK   78  A    between atoms: _178  and  _179
REMARK   79  A    between atoms: _178  and  _181
REMARK   80  A    between atoms: _181  and  _182
REMARK   81  A    between atoms: _187  and  _189
REMARK   82  A    between atoms: _189  and  _190
REMARK   83  A    between atoms: _189  and  _192
REMARK   84  A    between atoms: _192  and  _193
REMARK   85  A    between atoms: _199  and  _201
REMARK   86  A    between atoms: _201  and  _202
REMARK   87  A    between atoms: _201  and  _204
REMARK   88  A    between atoms: _204  and  _205
REMARK   89  A    between atoms: _208  and  _210
REMARK   90  A    between atoms: _210  and  _211
REMARK   91  A    between atoms: _214  and  _216
REMARK   92  A    between atoms: _216  and  _217
REMARK   93  A    between atoms: _216  and  _219
REMARK   94  A    between atoms: _219  and  _220
REMARK   95  A    between atoms: _222  and  _224
REMARK   96  A    between atoms: _224  and  _225
REMARK   97  A    between atoms: _224  and  _227
REMARK   98  A    between atoms: _231  and  _233
REMARK   99  A    between atoms: _233  and  _234
REMARK  100  A    between atoms: _233  and  _236
REMARK  101  A    between atoms: _236  and  _237
REMARK  102  A    between atoms: _243  and  _245
REMARK  103  A    between atoms: _245  and  _246
REMARK  104  A    between atoms: _245  and  _248
REMARK  105  A    between atoms: _248  and  _249
REMARK  106  A    between atoms: _249  and  _250
REMARK  107  A    between atoms: _255  and  _257
REMARK  108  A    between atoms: _257  and  _258
REMARK  109  A    between atoms: _257  and  _260
REMARK  110  A    between atoms: _260  and  _261
REMARK                            x       y       z     vdW  Elec       q    Type
REMARK                         _______ _______ _______ _____ _____    ______ ____
ROOT
ATOM      1  O   HOH     1      27.450  37.914   0.579  0.00  0.00    +0.000 OA
ENDROOT
TORSDOF 0
REMARK  Name = ../refined-set-2016/3djo/3djo_pocket.pdb
REMARK  110 active torsions:
REMARK  status: ('A' for Active; 'I' for Inactive)
REMARK    1  A    between atoms: _1  and  _3
REMARK    2  A    between atoms: _3  and  _4
REMARK    3  A    between atoms: _3  and  _6
REMARK    4  A    between atoms: _6  and  _7
REMARK    5  A    between atoms: _7  and  _8
REMARK    6  A    between atoms: _10  and  _12
REMARK    7  A    between atoms: _12  and  _13
REMARK    8  A    between atoms: _12  and  _15
REMARK    9  A    between atoms: _15  and  _16
REMARK   10  A    between atoms: _16  and  _17
REMARK   11  A    between atoms: _19  and  _21
REMARK   12  A    between atoms: _21  and  _22
REMARK   13  A    between atoms: _21  and  _24
REMARK   14  A    between atoms: _24  and  _25
REMARK   15  A    between atoms: _25  and  _26
REMARK   16  A    between atoms: _26  and  _27
REMARK   17  A    between atoms: _27  and  _28
REMARK   18  A    between atoms: _33  and  _34
REMARK   19  A    between atoms: _39  and  _41
REMARK   20  A    between atoms: _41  and  _42
REMARK   21  A    between atoms: _41  and  _44
REMARK   22  A    between atoms: _47  and  _49
REMARK   23  A    between atoms: _49  and  _50
REMARK   24  A    between atoms: _49  and  _52
REMARK   25  A    between atoms: _52  and  _53
REMARK   26  A    between atoms: _58  and  _60
REMARK   27  A    between atoms: _60  and  _61
REMARK   28  A    between atoms: _60  and  _63
REMARK   29  A    between atoms: _63  and  _64
REMARK   30  A    between atoms: _67  and  _69
REMARK   31  A    between atoms: _69  and  _70
REMARK   32  A    between atoms: _69  and  _72
REMARK   33  A    between atoms: _72  and  _73
REMARK   34  A    between atoms: _79  and  _81
REMARK   35  A    between atoms: _81  and  _82
REMARK   36  A    between atoms: _81  and  _84
REMARK   37  A    between atoms: _84  and  _85
REMARK   38  A    between atoms: _85  and  _86
REMARK   39  A    between atoms: _86  and  _87
REMARK   40  A    between atoms: _87  and  _88
REMARK   41  A    between atoms: _92  and  _94
REMARK   42  A    between atoms: _94  and  _95
REMARK   43  A    between atoms: _94  and  _97
REMARK   44  A    between atoms: _97  and  _98
REMARK   45  A    between atoms: _103  and  _105
REMARK   46  A    between atoms: _105  and  _106
REMARK   47  A    between atoms: _105  and  _108
REMARK   48  A    between atoms: _108  and  _109
REMARK   49  A    between atoms: _112  and  _114
REMARK   50  A    between atoms: _114  and  _115
REMARK   51  A    between atoms: _114  and  _117
REMARK   52  A    between atoms: _117  and  _118
REMARK   53  A    between atoms: _121  and  _123
REMARK   54  A    between atoms: _123  and  _124
REMARK   55  A    between atoms: _123  and  _126
REMARK   56  A    between atoms: _126  and  _127
REMARK   57  A    between atoms: _130  and  _132
REMARK   58  A    between atoms: _132  and  _133
REMARK   59  A    between atoms: _132  and  _135
REMARK   60  A    between atoms: _137  and  _139
REMARK   61  A    between atoms: _139  and  _140
REMARK   62  A    between atoms: _139  and  _142
REMARK   63  A    between atoms: _142  and  _143
REMARK   64  A    between atoms: _143  and  _144
REMARK   65  A    between atoms: _144  and  _145
REMARK   66  A    between atoms: _154  and  _156
REMARK   67  A    between atoms: _156  and  _157
REMARK   68  A    between atoms: _156  and  _159
REMARK   69  A    between atoms: _159  and  _160
REMARK   70  A    between atoms: _160  and  _161
REMARK   71  A    between atoms: _161  and  _162
REMARK   72  A    between atoms: _162  and  _163
REMARK   73  A    between atoms: _167  and  _169
REMARK   74  A    between atoms: _169  and  _170
REMARK   75  A    between atoms: _169  and  _172
REMARK   76  A    between atoms: _172  and  _173
REMARK   77  A    between atoms: _176  and  _178
REMARK   78  A    between atoms: _178  and  _179
REMARK   79  A    between atoms: _178  and  _181
REMARK   80  A    between atoms: _181  and  _182
REMARK   81  A    between atoms: _187  and  _189
REMARK   82  A    between atoms: _189  and  _190
REMARK   83  A    between atoms: _189  and  _192
REMARK   84  A    between atoms: _192  and  _193
REMARK   85  A    between atoms: _199  and  _201
REMARK   86  A    between atoms: _201  and  _202
REMARK   87  A    between atoms: _201  and  _204
REMARK   88  A    between atoms: _204  and  _205
REMARK   89  A    between atoms: _208  and  _210
REMARK   90  A    between atoms: _210  and  _211
REMARK   91  A    between atoms: _214  and  _216
REMARK   92  A    between atoms: _216  and  _217
REMARK   93  A    between atoms: _216  and  _219
REMARK   94  A    between atoms: _219  and  _220
REMARK   95  A    between atoms: _222  and  _224
REMARK   96  A    between atoms: _224  and  _225
REMARK   97  A    between atoms: _224  and  _227
REMARK   98  A    between atoms: _231  and  _233
REMARK   99  A    between atoms: _233  and  _234
REMARK  100  A    between atoms: _233  and  _236
REMARK  101  A    between atoms: _236  and  _237
REMARK  102  A    between atoms: _243  and  _245
REMARK  103  A    between atoms: _245  and  _246
REMARK  104  A    between atoms: _245  and  _248
REMARK  105  A    between atoms: _248  and  _249
REMARK  106  A    between atoms: _249  and  _250
REMARK  107  A    between atoms: _255  and  _257
REMARK  108  A    between atoms: _257  and  _258
REMARK  109  A    between atoms: _257  and  _260
REMARK  110  A    between atoms: _260  and  _261
REMARK                            x       y       z     vdW  Elec       q    Type
REMARK                         _______ _______ _______ _____ _____    ______ ____
ROOT
ATOM      1  O   HOH     1      28.976  40.479   0.561  0.00  0.00    +0.000 OA
ENDROOT
TORSDOF 0
REMARK  Name = ../refined-set-2016/3djo/3djo_pocket.pdb
REMARK  110 active torsions:
REMARK  status: ('A' for Active; 'I' for Inactive)
REMARK    1  A    between atoms: _1  and  _3
REMARK    2  A    between atoms: _3  and  _4
REMARK    3  A    between atoms: _3  and  _6
REMARK    4  A    between atoms: _6  and  _7
REMARK    5  A    between atoms: _7  and  _8
REMARK    6  A    between atoms: _10  and  _12
REMARK    7  A    between atoms: _12  and  _13
REMARK    8  A    between atoms: _12  and  _15
REMARK    9  A    between atoms: _15  and  _16
REMARK   10  A    between atoms: _16  and  _17
REMARK   11  A    between atoms: _19  and  _21
REMARK   12  A    between atoms: _21  and  _22
REMARK   13  A    between atoms: _21  and  _24
REMARK   14  A    between atoms: _24  and  _25
REMARK   15  A    between atoms: _25  and  _26
REMARK   16  A    between atoms: _26  and  _27
REMARK   17  A    between atoms: _27  and  _28
REMARK   18  A    between atoms: _33  and  _34
REMARK   19  A    between atoms: _39  and  _41
REMARK   20  A    between atoms: _41  and  _42
REMARK   21  A    between atoms: _41  and  _44
REMARK   22  A    between atoms: _47  and  _49
REMARK   23  A    between atoms: _49  and  _50
REMARK   24  A    between atoms: _49  and  _52
REMARK   25  A    between atoms: _52  and  _53
REMARK   26  A    between atoms: _58  and  _60
REMARK   27  A    between atoms: _60  and  _61
REMARK   28  A    between atoms: _60  and  _63
REMARK   29  A    between atoms: _63  and  _64
REMARK   30  A    between atoms: _67  and  _69
REMARK   31  A    between atoms: _69  and  _70
REMARK   32  A    between atoms: _69  and  _72
REMARK   33  A    between atoms: _72  and  _73
REMARK   34  A    between atoms: _79  and  _81
REMARK   35  A    between atoms: _81  and  _82
REMARK   36  A    between atoms: _81  and  _84
REMARK   37  A    between atoms: _84  and  _85
REMARK   38  A    between atoms: _85  and  _86
REMARK   39  A    between atoms: _86  and  _87
REMARK   40  A    between atoms: _87  and  _88
REMARK   41  A    between atoms: _92  and  _94
REMARK   42  A    between atoms: _94  and  _95
REMARK   43  A    between atoms: _94  and  _97
REMARK   44  A    between atoms: _97  and  _98
REMARK   45  A    between atoms: _103  and  _105
REMARK   46  A    between atoms: _105  and  _106
REMARK   47  A    between atoms: _105  and  _108
REMARK   48  A    between atoms: _108  and  _109
REMARK   49  A    between atoms: _112  and  _114
REMARK   50  A    between atoms: _114  and  _115
REMARK   51  A    between atoms: _114  and  _117
REMARK   52  A    between atoms: _117  and  _118
REMARK   53  A    between atoms: _121  and  _123
REMARK   54  A    between atoms: _123  and  _124
REMARK   55  A    between atoms: _123  and  _126
REMARK   56  A    between atoms: _126  and  _127
REMARK   57  A    between atoms: _130  and  _132
REMARK   58  A    between atoms: _132  and  _133
REMARK   59  A    between atoms: _132  and  _135
REMARK   60  A    between atoms: _137  and  _139
REMARK   61  A    between atoms: _139  and  _140
REMARK   62  A    between atoms: _139  and  _142
REMARK   63  A    between atoms: _142  and  _143
REMARK   64  A    between atoms: _143  and  _144
REMARK   65  A    between atoms: _144  and  _145
REMARK   66  A    between atoms: _154  and  _156
REMARK   67  A    between atoms: _156  and  _157
REMARK   68  A    between atoms: _156  and  _159
REMARK   69  A    between atoms: _159  and  _160
REMARK   70  A    between atoms: _160  and  _161
REMARK   71  A    between atoms: _161  and  _162
REMARK   72  A    between atoms: _162  and  _163
REMARK   73  A    between atoms: _167  and  _169
REMARK   74  A    between atoms: _169  and  _170
REMARK   75  A    between atoms: _169  and  _172
REMARK   76  A    between atoms: _172  and  _173
REMARK   77  A    between atoms: _176  and  _178
REMARK   78  A    between atoms: _178  and  _179
REMARK   79  A    between atoms: _178  and  _181
REMARK   80  A    between atoms: _181  and  _182
REMARK   81  A    between atoms: _187  and  _189
REMARK   82  A    between atoms: _189  and  _190
REMARK   83  A    between atoms: _189  and  _192
REMARK   84  A    between atoms: _192  and  _193
REMARK   85  A    between atoms: _199  and  _201
REMARK   86  A    between atoms: _201  and  _202
REMARK   87  A    between atoms: _201  and  _204
REMARK   88  A    between atoms: _204  and  _205
REMARK   89  A    between atoms: _208  and  _210
REMARK   90  A    between atoms: _210  and  _211
REMARK   91  A    between atoms: _214  and  _216
REMARK   92  A    between atoms: _216  and  _217
REMARK   93  A    between atoms: _216  and  _219
REMARK   94  A    between atoms: _219  and  _220
REMARK   95  A    between atoms: _222  and  _224
REMARK   96  A    between atoms: _224  and  _225
REMARK   97  A    between atoms: _224  and  _227
REMARK   98  A    between atoms: _231  and  _233
REMARK   99  A    between atoms: _233  and  _234
REMARK  100  A    between atoms: _233  and  _236
REMARK  101  A    between atoms: _236  and  _237
REMARK  102  A    between atoms: _243  and  _245
REMARK  103  A    between atoms: _245  and  _246
REMARK  104  A    between atoms: _245  and  _248
REMARK  105  A    between atoms: _248  and  _249
REMARK  106  A    between atoms: _249  and  _250
REMARK  107  A    between atoms: _255  and  _257
REMARK  108  A    between atoms: _257  and  _258
REMARK  109  A    between atoms: _257  and  _260
REMARK  110  A    between atoms: _260  and  _261
REMARK                            x       y       z     vdW  Elec       q    Type
REMARK                         _______ _______ _______ _____ _____    ______ ____
ROOT
ATOM      1  O   HOH     1      30.677  43.307   0.706  0.00  0.00    +0.000 OA
ENDROOT
TORSDOF 0
REMARK  Name = ../refined-set-2016/3djo/3djo_pocket.pdb
REMARK  110 active torsions:
REMARK  status: ('A' for Active; 'I' for Inactive)
REMARK    1  A    between atoms: _1  and  _3
REMARK    2  A    between atoms: _3  and  _4
REMARK    3  A    between atoms: _3  and  _6
REMARK    4  A    between atoms: _6  and  _7
REMARK    5  A    between atoms: _7  and  _8
REMARK    6  A    between atoms: _10  and  _12
REMARK    7  A    between atoms: _12  and  _13
REMARK    8  A    between atoms: _12  and  _15
REMARK    9  A    between atoms: _15  and  _16
REMARK   10  A    between atoms: _16  and  _17
REMARK   11  A    between atoms: _19  and  _21
REMARK   12  A    between atoms: _21  and  _22
REMARK   13  A    between atoms: _21  and  _24
REMARK   14  A    between atoms: _24  and  _25
REMARK   15  A    between atoms: _25  and  _26
REMARK   16  A    between atoms: _26  and  _27
REMARK   17  A    between atoms: _27  and  _28
REMARK   18  A    between atoms: _33  and  _34
REMARK   19  A    between atoms: _39  and  _41
REMARK   20  A    between atoms: _41  and  _42
REMARK   21  A    between atoms: _41  and  _44
REMARK   22  A    between atoms: _47  and  _49
REMARK   23  A    between atoms: _49  and  _50
REMARK   24  A    between atoms: _49  and  _52
REMARK   25  A    between atoms: _52  and  _53
REMARK   26  A    between atoms: _58  and  _60
REMARK   27  A    between atoms: _60  and  _61
REMARK   28  A    between atoms: _60  and  _63
REMARK   29  A    between atoms: _63  and  _64
REMARK   30  A    between atoms: _67  and  _69
REMARK   31  A    between atoms: _69  and  _70
REMARK   32  A    between atoms: _69  and  _72
REMARK   33  A    between atoms: _72  and  _73
REMARK   34  A    between atoms: _79  and  _81
REMARK   35  A    between atoms: _81  and  _82
REMARK   36  A    between atoms: _81  and  _84
REMARK   37  A    between atoms: _84  and  _85
REMARK   38  A    between atoms: _85  and  _86
REMARK   39  A    between atoms: _86  and  _87
REMARK   40  A    between atoms: _87  and  _88
REMARK   41  A    between atoms: _92  and  _94
REMARK   42  A    between atoms: _94  and  _95
REMARK   43  A    between atoms: _94  and  _97
REMARK   44  A    between atoms: _97  and  _98
REMARK   45  A    between atoms: _103  and  _105
REMARK   46  A    between atoms: _105  and  _106
REMARK   47  A    between atoms: _105  and  _108
REMARK   48  A    between atoms: _108  and  _109
REMARK   49  A    between atoms: _112  and  _114
REMARK   50  A    between atoms: _114  and  _115
REMARK   51  A    between atoms: _114  and  _117
REMARK   52  A    between atoms: _117  and  _118
REMARK   53  A    between atoms: _121  and  _123
REMARK   54  A    between atoms: _123  and  _124
REMARK   55  A    between atoms: _123  and  _126
REMARK   56  A    between atoms: _126  and  _127
REMARK   57  A    between atoms: _130  and  _132
REMARK   58  A    between atoms: _132  and  _133
REMARK   59  A    between atoms: _132  and  _135
REMARK   60  A    between atoms: _137  and  _139
REMARK   61  A    between atoms: _139  and  _140
REMARK   62  A    between atoms: _139  and  _142
REMARK   63  A    between atoms: _142  and  _143
REMARK   64  A    between atoms: _143  and  _144
REMARK   65  A    between atoms: _144  and  _145
REMARK   66  A    between atoms: _154  and  _156
REMARK   67  A    between atoms: _156  and  _157
REMARK   68  A    between atoms: _156  and  _159
REMARK   69  A    between atoms: _159  and  _160
REMARK   70  A    between atoms: _160  and  _161
REMARK   71  A    between atoms: _161  and  _162
REMARK   72  A    between atoms: _162  and  _163
REMARK   73  A    between atoms: _167  and  _169
REMARK   74  A    between atoms: _169  and  _170
REMARK   75  A    between atoms: _169  and  _172
REMARK   76  A    between atoms: _172  and  _173
REMARK   77  A    between atoms: _176  and  _178
REMARK   78  A    between atoms: _178  and  _179
REMARK   79  A    between atoms: _178  and  _181
REMARK   80  A    between atoms: _181  and  _182
REMARK   81  A    between atoms: _187  and  _189
REMARK   82  A    between atoms: _189  and  _190
REMARK   83  A    between atoms: _189  and  _192
REMARK   84  A    between atoms: _192  and  _193
REMARK   85  A    between atoms: _199  and  _201
REMARK   86  A    between atoms: _201  and  _202
REMARK   87  A    between atoms: _201  and  _204
REMARK   88  A    between atoms: _204  and  _205
REMARK   89  A    between atoms: _208  and  _210
REMARK   90  A    between atoms: _210  and  _211
REMARK   91  A    between atoms: _214  and  _216
REMARK   92  A    between atoms: _216  and  _217
REMARK   93  A    between atoms: _216  and  _219
REMARK   94  A    between atoms: _219  and  _220
REMARK   95  A    between atoms: _222  and  _224
REMARK   96  A    between atoms: _224  and  _225
REMARK   97  A    between atoms: _224  and  _227
REMARK   98  A    between atoms: _231  and  _233
REMARK   99  A    between atoms: _233  and  _234
REMARK  100  A    between atoms: _233  and  _236
REMARK  101  A    between atoms: _236  and  _237
REMARK  102  A    between atoms: _243  and  _245
REMARK  103  A    between atoms: _245  and  _246
REMARK  104  A    between atoms: _245  and  _248
REMARK  105  A    between atoms: _248  and  _249
REMARK  106  A    between atoms: _249  and  _250
REMARK  107  A    between atoms: _255  and  _257
REMARK  108  A    between atoms: _257  and  _258
REMARK  109  A    between atoms: _257  and  _260
REMARK  110  A    between atoms: _260  and  _261
REMARK                            x       y       z     vdW  Elec       q    Type
REMARK                         _______ _______ _______ _____ _____    ______ ____
ROOT
ATOM      1  O   HOH     1      27.938  43.378  -1.236  0.00  0.00    +0.000 OA
ENDROOT
TORSDOF 0
REMARK  Name = ../refined-set-2016/3djo/3djo_pocket.pdb
REMARK  110 active torsions:
REMARK  status: ('A' for Active; 'I' for Inactive)
REMARK    1  A    between atoms: _1  and  _3
REMARK    2  A    between atoms: _3  and  _4
REMARK    3  A    between atoms: _3  and  _6
REMARK    4  A    between atoms: _6  and  _7
REMARK    5  A    between atoms: _7  and  _8
REMARK    6  A    between atoms: _10  and  _12
REMARK    7  A    between atoms: _12  and  _13
REMARK    8  A    between atoms: _12  and  _15
REMARK    9  A    between atoms: _15  and  _16
REMARK   10  A    between atoms: _16  and  _17
REMARK   11  A    between atoms: _19  and  _21
REMARK   12  A    between atoms: _21  and  _22
REMARK   13  A    between atoms: _21  and  _24
REMARK   14  A    between atoms: _24  and  _25
REMARK   15  A    between atoms: _25  and  _26
REMARK   16  A    between atoms: _26  and  _27
REMARK   17  A    between atoms: _27  and  _28
REMARK   18  A    between atoms: _33  and  _34
REMARK   19  A    between atoms: _39  and  _41
REMARK   20  A    between atoms: _41  and  _42
REMARK   21  A    between atoms: _41  and  _44
REMARK   22  A    between atoms: _47  and  _49
REMARK   23  A    between atoms: _49  and  _50
REMARK   24  A    between atoms: _49  and  _52
REMARK   25  A    between atoms: _52  and  _53
REMARK   26  A    between atoms: _58  and  _60
REMARK   27  A    between atoms: _60  and  _61
REMARK   28  A    between atoms: _60  and  _63
REMARK   29  A    between atoms: _63  and  _64
REMARK   30  A    between atoms: _67  and  _69
REMARK   31  A    between atoms: _69  and  _70
REMARK   32  A    between atoms: _69  and  _72
REMARK   33  A    between atoms: _72  and  _73
REMARK   34  A    between atoms: _79  and  _81
REMARK   35  A    between atoms: _81  and  _82
REMARK   36  A    between atoms: _81  and  _84
REMARK   37  A    between atoms: _84  and  _85
REMARK   38  A    between atoms: _85  and  _86
REMARK   39  A    between atoms: _86  and  _87
REMARK   40  A    between atoms: _87  and  _88
REMARK   41  A    between atoms: _92  and  _94
REMARK   42  A    between atoms: _94  and  _95
REMARK   43  A    between atoms: _94  and  _97
REMARK   44  A    between atoms: _97  and  _98
REMARK   45  A    between atoms: _103  and  _105
REMARK   46  A    between atoms: _105  and  _106
REMARK   47  A    between atoms: _105  and  _108
REMARK   48  A    between atoms: _108  and  _109
REMARK   49  A    between atoms: _112  and  _114
REMARK   50  A    between atoms: _114  and  _115
REMARK   51  A    between atoms: _114  and  _117
REMARK   52  A    between atoms: _117  and  _118
REMARK   53  A    between atoms: _121  and  _123
REMARK   54  A    between atoms: _123  and  _124
REMARK   55  A    between atoms: _123  and  _126
REMARK   56  A    between atoms: _126  and  _127
REMARK   57  A    between atoms: _130  and  _132
REMARK   58  A    between atoms: _132  and  _133
REMARK   59  A    between atoms: _132  and  _135
REMARK   60  A    between atoms: _137  and  _139
REMARK   61  A    between atoms: _139  and  _140
REMARK   62  A    between atoms: _139  and  _142
REMARK   63  A    between atoms: _142  and  _143
REMARK   64  A    between atoms: _143  and  _144
REMARK   65  A    between atoms: _144  and  _145
REMARK   66  A    between atoms: _154  and  _156
REMARK   67  A    between atoms: _156  and  _157
REMARK   68  A    between atoms: _156  and  _159
REMARK   69  A    between atoms: _159  and  _160
REMARK   70  A    between atoms: _160  and  _161
REMARK   71  A    between atoms: _161  and  _162
REMARK   72  A    between atoms: _162  and  _163
REMARK   73  A    between atoms: _167  and  _169
REMARK   74  A    between atoms: _169  and  _170
REMARK   75  A    between atoms: _169  and  _172
REMARK   76  A    between atoms: _172  and  _173
REMARK   77  A    between atoms: _176  and  _178
REMARK   78  A    between atoms: _178  and  _179
REMARK   79  A    between atoms: _178  and  _181
REMARK   80  A    between atoms: _181  and  _182
REMARK   81  A    between atoms: _187  and  _189
REMARK   82  A    between atoms: _189  and  _190
REMARK   83  A    between atoms: _189  and  _192
REMARK   84  A    between atoms: _192  and  _193
REMARK   85  A    between atoms: _199  and  _201
REMARK   86  A    between atoms: _201  and  _202
REMARK   87  A    between atoms: _201  and  _204
REMARK   88  A    between atoms: _204  and  _205
REMARK   89  A    between atoms: _208  and  _210
REMARK   90  A    between atoms: _210  and  _211
REMARK   91  A    between atoms: _214  and  _216
REMARK   92  A    between atoms: _216  and  _217
REMARK   93  A    between atoms: _216  and  _219
REMARK   94  A    between atoms: _219  and  _220
REMARK   95  A    between atoms: _222  and  _224
REMARK   96  A    between atoms: _224  and  _225
REMARK   97  A    between atoms: _224  and  _227
REMARK   98  A    between atoms: _231  and  _233
REMARK   99  A    between atoms: _233  and  _234
REMARK  100  A    between atoms: _233  and  _236
REMARK  101  A    between atoms: _236  and  _237
REMARK  102  A    between atoms: _243  and  _245
REMARK  103  A    between atoms: _245  and  _246
REMARK  104  A    between atoms: _245  and  _248
REMARK  105  A    between atoms: _248  and  _249
REMARK  106  A    between atoms: _249  and  _250
REMARK  107  A    between atoms: _255  and  _257
REMARK  108  A    between atoms: _257  and  _258
REMARK  109  A    between atoms: _257  and  _260
REMARK  110  A    between atoms: _260  and  _261
REMARK                            x       y       z     vdW  Elec       q    Type
REMARK                         _______ _______ _______ _____ _____    ______ ____
ROOT
ATOM      1  O   HOH     1      29.676  44.648  -4.313  0.00  0.00    +0.000 OA
ENDROOT
TORSDOF 0
REMARK  Name = ../refined-set-2016/3djo/3djo_pocket.pdb
REMARK  110 active torsions:
REMARK  status: ('A' for Active; 'I' for Inactive)
REMARK    1  A    between atoms: _1  and  _3
REMARK    2  A    between atoms: _3  and  _4
REMARK    3  A    between atoms: _3  and  _6
REMARK    4  A    between atoms: _6  and  _7
REMARK    5  A    between atoms: _7  and  _8
REMARK    6  A    between atoms: _10  and  _12
REMARK    7  A    between atoms: _12  and  _13
REMARK    8  A    between atoms: _12  and  _15
REMARK    9  A    between atoms: _15  and  _16
REMARK   10  A    between atoms: _16  and  _17
REMARK   11  A    between atoms: _19  and  _21
REMARK   12  A    between atoms: _21  and  _22
REMARK   13  A    between atoms: _21  and  _24
REMARK   14  A    between atoms: _24  and  _25
REMARK   15  A    between atoms: _25  and  _26
REMARK   16  A    between atoms: _26  and  _27
REMARK   17  A    between atoms: _27  and  _28
REMARK   18  A    between atoms: _33  and  _34
REMARK   19  A    between atoms: _39  and  _41
REMARK   20  A    between atoms: _41  and  _42
REMARK   21  A    between atoms: _41  and  _44
REMARK   22  A    between atoms: _47  and  _49
REMARK   23  A    between atoms: _49  and  _50
REMARK   24  A    between atoms: _49  and  _52
REMARK   25  A    between atoms: _52  and  _53
REMARK   26  A    between atoms: _58  and  _60
REMARK   27  A    between atoms: _60  and  _61
REMARK   28  A    between atoms: _60  and  _63
REMARK   29  A    between atoms: _63  and  _64
REMARK   30  A    between atoms: _67  and  _69
REMARK   31  A    between atoms: _69  and  _70
REMARK   32  A    between atoms: _69  and  _72
REMARK   33  A    between atoms: _72  and  _73
REMARK   34  A    between atoms: _79  and  _81
REMARK   35  A    between atoms: _81  and  _82
REMARK   36  A    between atoms: _81  and  _84
REMARK   37  A    between atoms: _84  and  _85
REMARK   38  A    between atoms: _85  and  _86
REMARK   39  A    between atoms: _86  and  _87
REMARK   40  A    between atoms: _87  and  _88
REMARK   41  A    between atoms: _92  and  _94
REMARK   42  A    between atoms: _94  and  _95
REMARK   43  A    between atoms: _94  and  _97
REMARK   44  A    between atoms: _97  and  _98
REMARK   45  A    between atoms: _103  and  _105
REMARK   46  A    between atoms: _105  and  _106
REMARK   47  A    between atoms: _105  and  _108
REMARK   48  A    between atoms: _108  and  _109
REMARK   49  A    between atoms: _112  and  _114
REMARK   50  A    between atoms: _114  and  _115
REMARK   51  A    between atoms: _114  and  _117
REMARK   52  A    between atoms: _117  and  _118
REMARK   53  A    between atoms: _121  and  _123
REMARK   54  A    between atoms: _123  and  _124
REMARK   55  A    between atoms: _123  and  _126
REMARK   56  A    between atoms: _126  and  _127
REMARK   57  A    between atoms: _130  and  _132
REMARK   58  A    between atoms: _132  and  _133
REMARK   59  A    between atoms: _132  and  _135
REMARK   60  A    between atoms: _137  and  _139
REMARK   61  A    between atoms: _139  and  _140
REMARK   62  A    between atoms: _139  and  _142
REMARK   63  A    between atoms: _142  and  _143
REMARK   64  A    between atoms: _143  and  _144
REMARK   65  A    between atoms: _144  and  _145
REMARK   66  A    between atoms: _154  and  _156
REMARK   67  A    between atoms: _156  and  _157
REMARK   68  A    between atoms: _156  and  _159
REMARK   69  A    between atoms: _159  and  _160
REMARK   70  A    between atoms: _160  and  _161
REMARK   71  A    between atoms: _161  and  _162
REMARK   72  A    between atoms: _162  and  _163
REMARK   73  A    between atoms: _167  and  _169
REMARK   74  A    between atoms: _169  and  _170
REMARK   75  A    between atoms: _169  and  _172
REMARK   76  A    between atoms: _172  and  _173
REMARK   77  A    between atoms: _176  and  _178
REMARK   78  A    between atoms: _178  and  _179
REMARK   79  A    between atoms: _178  and  _181
REMARK   80  A    between atoms: _181  and  _182
REMARK   81  A    between atoms: _187  and  _189
REMARK   82  A    between atoms: _189  and  _190
REMARK   83  A    between atoms: _189  and  _192
REMARK   84  A    between atoms: _192  and  _193
REMARK   85  A    between atoms: _199  and  _201
REMARK   86  A    between atoms: _201  and  _202
REMARK   87  A    between atoms: _201  and  _204
REMARK   88  A    between atoms: _204  and  _205
REMARK   89  A    between atoms: _208  and  _210
REMARK   90  A    between atoms: _210  and  _211
REMARK   91  A    between atoms: _214  and  _216
REMARK   92  A    between atoms: _216  and  _217
REMARK   93  A    between atoms: _216  and  _219
REMARK   94  A    between atoms: _219  and  _220
REMARK   95  A    between atoms: _222  and  _224
REMARK   96  A    between atoms: _224  and  _225
REMARK   97  A    between atoms: _224  and  _227
REMARK   98  A    between atoms: _231  and  _233
REMARK   99  A    between atoms: _233  and  _234
REMARK  100  A    between atoms: _233  and  _236
REMARK  101  A    between atoms: _236  and  _237
REMARK  102  A    between atoms: _243  and  _245
REMARK  103  A    between atoms: _245  and  _246
REMARK  104  A    between atoms: _245  and  _248
REMARK  105  A    between atoms: _248  and  _249
REMARK  106  A    between atoms: _249  and  _250
REMARK  107  A    between atoms: _255  and  _257
REMARK  108  A    between atoms: _257  and  _258
REMARK  109  A    between atoms: _257  and  _260
REMARK  110  A    between atoms: _260  and  _261
REMARK                            x       y       z     vdW  Elec       q    Type
REMARK                         _______ _______ _______ _____ _____    ______ ____
ROOT
ATOM      1  O   HOH     1      35.216  43.575   9.668  0.00  0.00    +0.000 OA
ENDROOT
TORSDOF 0
REMARK  Name = ../refined-set-2016/3djo/3djo_pocket.pdb
REMARK  110 active torsions:
REMARK  status: ('A' for Active; 'I' for Inactive)
REMARK    1  A    between atoms: _1  and  _3
REMARK    2  A    between atoms: _3  and  _4
REMARK    3  A    between atoms: _3  and  _6
REMARK    4  A    between atoms: _6  and  _7
REMARK    5  A    between atoms: _7  and  _8
REMARK    6  A    between atoms: _10  and  _12
REMARK    7  A    between atoms: _12  and  _13
REMARK    8  A    between atoms: _12  and  _15
REMARK    9  A    between atoms: _15  and  _16
REMARK   10  A    between atoms: _16  and  _17
REMARK   11  A    between atoms: _19  and  _21
REMARK   12  A    between atoms: _21  and  _22
REMARK   13  A    between atoms: _21  and  _24
REMARK   14  A    between atoms: _24  and  _25
REMARK   15  A    between atoms: _25  and  _26
REMARK   16  A    between atoms: _26  and  _27
REMARK   17  A    between atoms: _27  and  _28
REMARK   18  A    between atoms: _33  and  _34
REMARK   19  A    between atoms: _39  and  _41
REMARK   20  A    between atoms: _41  and  _42
REMARK   21  A    between atoms: _41  and  _44
REMARK   22  A    between atoms: _47  and  _49
REMARK   23  A    between atoms: _49  and  _50
REMARK   24  A    between atoms: _49  and  _52
REMARK   25  A    between atoms: _52  and  _53
REMARK   26  A    between atoms: _58  and  _60
REMARK   27  A    between atoms: _60  and  _61
REMARK   28  A    between atoms: _60  and  _63
REMARK   29  A    between atoms: _63  and  _64
REMARK   30  A    between atoms: _67  and  _69
REMARK   31  A    between atoms: _69  and  _70
REMARK   32  A    between atoms: _69  and  _72
REMARK   33  A    between atoms: _72  and  _73
REMARK   34  A    between atoms: _79  and  _81
REMARK   35  A    between atoms: _81  and  _82
REMARK   36  A    between atoms: _81  and  _84
REMARK   37  A    between atoms: _84  and  _85
REMARK   38  A    between atoms: _85  and  _86
REMARK   39  A    between atoms: _86  and  _87
REMARK   40  A    between atoms: _87  and  _88
REMARK   41  A    between atoms: _92  and  _94
REMARK   42  A    between atoms: _94  and  _95
REMARK   43  A    between atoms: _94  and  _97
REMARK   44  A    between atoms: _97  and  _98
REMARK   45  A    between atoms: _103  and  _105
REMARK   46  A    between atoms: _105  and  _106
REMARK   47  A    between atoms: _105  and  _108
REMARK   48  A    between atoms: _108  and  _109
REMARK   49  A    between atoms: _112  and  _114
REMARK   50  A    between atoms: _114  and  _115
REMARK   51  A    between atoms: _114  and  _117
REMARK   52  A    between atoms: _117  and  _118
REMARK   53  A    between atoms: _121  and  _123
REMARK   54  A    between atoms: _123  and  _124
REMARK   55  A    between atoms: _123  and  _126
REMARK   56  A    between atoms: _126  and  _127
REMARK   57  A    between atoms: _130  and  _132
REMARK   58  A    between atoms: _132  and  _133
REMARK   59  A    between atoms: _132  and  _135
REMARK   60  A    between atoms: _137  and  _139
REMARK   61  A    between atoms: _139  and  _140
REMARK   62  A    between atoms: _139  and  _142
REMARK   63  A    between atoms: _142  and  _143
REMARK   64  A    between atoms: _143  and  _144
REMARK   65  A    between atoms: _144  and  _145
REMARK   66  A    between atoms: _154  and  _156
REMARK   67  A    between atoms: _156  and  _157
REMARK   68  A    between atoms: _156  and  _159
REMARK   69  A    between atoms: _159  and  _160
REMARK   70  A    between atoms: _160  and  _161
REMARK   71  A    between atoms: _161  and  _162
REMARK   72  A    between atoms: _162  and  _163
REMARK   73  A    between atoms: _167  and  _169
REMARK   74  A    between atoms: _169  and  _170
REMARK   75  A    between atoms: _169  and  _172
REMARK   76  A    between atoms: _172  and  _173
REMARK   77  A    between atoms: _176  and  _178
REMARK   78  A    between atoms: _178  and  _179
REMARK   79  A    between atoms: _178  and  _181
REMARK   80  A    between atoms: _181  and  _182
REMARK   81  A    between atoms: _187  and  _189
REMARK   82  A    between atoms: _189  and  _190
REMARK   83  A    between atoms: _189  and  _192
REMARK   84  A    between atoms: _192  and  _193
REMARK   85  A    between atoms: _199  and  _201
REMARK   86  A    between atoms: _201  and  _202
REMARK   87  A    between atoms: _201  and  _204
REMARK   88  A    between atoms: _204  and  _205
REMARK   89  A    between atoms: _208  and  _210
REMARK   90  A    between atoms: _210  and  _211
REMARK   91  A    between atoms: _214  and  _216
REMARK   92  A    between atoms: _216  and  _217
REMARK   93  A    between atoms: _216  and  _219
REMARK   94  A    between atoms: _219  and  _220
REMARK   95  A    between atoms: _222  and  _224
REMARK   96  A    between atoms: _224  and  _225
REMARK   97  A    between atoms: _224  and  _227
REMARK   98  A    between atoms: _231  and  _233
REMARK   99  A    between atoms: _233  and  _234
REMARK  100  A    between atoms: _233  and  _236
REMARK  101  A    between atoms: _236  and  _237
REMARK  102  A    between atoms: _243  and  _245
REMARK  103  A    between atoms: _245  and  _246
REMARK  104  A    between atoms: _245  and  _248
REMARK  105  A    between atoms: _248  and  _249
REMARK  106  A    between atoms: _249  and  _250
REMARK  107  A    between atoms: _255  and  _257
REMARK  108  A    between atoms: _257  and  _258
REMARK  109  A    between atoms: _257  and  _260
REMARK  110  A    between atoms: _260  and  _261
REMARK                            x       y       z     vdW  Elec       q    Type
REMARK                         _______ _______ _______ _____ _____    ______ ____
ROOT
ATOM      1  O   HOH     1      37.399  44.188   8.254  0.00  0.00    +0.000 OA
ENDROOT
TORSDOF 0
REMARK  Name = ../refined-set-2016/3djo/3djo_pocket.pdb
REMARK  110 active torsions:
REMARK  status: ('A' for Active; 'I' for Inactive)
REMARK    1  A    between atoms: _1  and  _3
REMARK    2  A    between atoms: _3  and  _4
REMARK    3  A    between atoms: _3  and  _6
REMARK    4  A    between atoms: _6  and  _7
REMARK    5  A    between atoms: _7  and  _8
REMARK    6  A    between atoms: _10  and  _12
REMARK    7  A    between atoms: _12  and  _13
REMARK    8  A    between atoms: _12  and  _15
REMARK    9  A    between atoms: _15  and  _16
REMARK   10  A    between atoms: _16  and  _17
REMARK   11  A    between atoms: _19  and  _21
REMARK   12  A    between atoms: _21  and  _22
REMARK   13  A    between atoms: _21  and  _24
REMARK   14  A    between atoms: _24  and  _25
REMARK   15  A    between atoms: _25  and  _26
REMARK   16  A    between atoms: _26  and  _27
REMARK   17  A    between atoms: _27  and  _28
REMARK   18  A    between atoms: _33  and  _34
REMARK   19  A    between atoms: _39  and  _41
REMARK   20  A    between atoms: _41  and  _42
REMARK   21  A    between atoms: _41  and  _44
REMARK   22  A    between atoms: _47  and  _49
REMARK   23  A    between atoms: _49  and  _50
REMARK   24  A    between atoms: _49  and  _52
REMARK   25  A    between atoms: _52  and  _53
REMARK   26  A    between atoms: _58  and  _60
REMARK   27  A    between atoms: _60  and  _61
REMARK   28  A    between atoms: _60  and  _63
REMARK   29  A    between atoms: _63  and  _64
REMARK   30  A    between atoms: _67  and  _69
REMARK   31  A    between atoms: _69  and  _70
REMARK   32  A    between atoms: _69  and  _72
REMARK   33  A    between atoms: _72  and  _73
REMARK   34  A    between atoms: _79  and  _81
REMARK   35  A    between atoms: _81  and  _82
REMARK   36  A    between atoms: _81  and  _84
REMARK   37  A    between atoms: _84  and  _85
REMARK   38  A    between atoms: _85  and  _86
REMARK   39  A    between atoms: _86  and  _87
REMARK   40  A    between atoms: _87  and  _88
REMARK   41  A    between atoms: _92  and  _94
REMARK   42  A    between atoms: _94  and  _95
REMARK   43  A    between atoms: _94  and  _97
REMARK   44  A    between atoms: _97  and  _98
REMARK   45  A    between atoms: _103  and  _105
REMARK   46  A    between atoms: _105  and  _106
REMARK   47  A    between atoms: _105  and  _108
REMARK   48  A    between atoms: _108  and  _109
REMARK   49  A    between atoms: _112  and  _114
REMARK   50  A    between atoms: _114  and  _115
REMARK   51  A    between atoms: _114  and  _117
REMARK   52  A    between atoms: _117  and  _118
REMARK   53  A    between atoms: _121  and  _123
REMARK   54  A    between atoms: _123  and  _124
REMARK   55  A    between atoms: _123  and  _126
REMARK   56  A    between atoms: _126  and  _127
REMARK   57  A    between atoms: _130  and  _132
REMARK   58  A    between atoms: _132  and  _133
REMARK   59  A    between atoms: _132  and  _135
REMARK   60  A    between atoms: _137  and  _139
REMARK   61  A    between atoms: _139  and  _140
REMARK   62  A    between atoms: _139  and  _142
REMARK   63  A    between atoms: _142  and  _143
REMARK   64  A    between atoms: _143  and  _144
REMARK   65  A    between atoms: _144  and  _145
REMARK   66  A    between atoms: _154  and  _156
REMARK   67  A    between atoms: _156  and  _157
REMARK   68  A    between atoms: _156  and  _159
REMARK   69  A    between atoms: _159  and  _160
REMARK   70  A    between atoms: _160  and  _161
REMARK   71  A    between atoms: _161  and  _162
REMARK   72  A    between atoms: _162  and  _163
REMARK   73  A    between atoms: _167  and  _169
REMARK   74  A    between atoms: _169  and  _170
REMARK   75  A    between atoms: _169  and  _172
REMARK   76  A    between atoms: _172  and  _173
REMARK   77  A    between atoms: _176  and  _178
REMARK   78  A    between atoms: _178  and  _179
REMARK   79  A    between atoms: _178  and  _181
REMARK   80  A    between atoms: _181  and  _182
REMARK   81  A    between atoms: _187  and  _189
REMARK   82  A    between atoms: _189  and  _190
REMARK   83  A    between atoms: _189  and  _192
REMARK   84  A    between atoms: _192  and  _193
REMARK   85  A    between atoms: _199  and  _201
REMARK   86  A    between atoms: _201  and  _202
REMARK   87  A    between atoms: _201  and  _204
REMARK   88  A    between atoms: _204  and  _205
REMARK   89  A    between atoms: _208  and  _210
REMARK   90  A    between atoms: _210  and  _211
REMARK   91  A    between atoms: _214  and  _216
REMARK   92  A    between atoms: _216  and  _217
REMARK   93  A    between atoms: _216  and  _219
REMARK   94  A    between atoms: _219  and  _220
REMARK   95  A    between atoms: _222  and  _224
REMARK   96  A    between atoms: _224  and  _225
REMARK   97  A    between atoms: _224  and  _227
REMARK   98  A    between atoms: _231  and  _233
REMARK   99  A    between atoms: _233  and  _234
REMARK  100  A    between atoms: _233  and  _236
REMARK  101  A    between atoms: _236  and  _237
REMARK  102  A    between atoms: _243  and  _245
REMARK  103  A    between atoms: _245  and  _246
REMARK  104  A    between atoms: _245  and  _248
REMARK  105  A    between atoms: _248  and  _249
REMARK  106  A    between atoms: _249  and  _250
REMARK  107  A    between atoms: _255  and  _257
REMARK  108  A    between atoms: _257  and  _258
REMARK  109  A    between atoms: _257  and  _260
REMARK  110  A    between atoms: _260  and  _261
REMARK                            x       y       z     vdW  Elec       q    Type
REMARK                         _______ _______ _______ _____ _____    ______ ____
ROOT
ATOM      1  O   HOH     1      33.522  43.273   7.043  0.00  0.00    +0.000 OA
ENDROOT
TORSDOF 0
REMARK  Name = ../refined-set-2016/3djo/3djo_pocket.pdb
REMARK  110 active torsions:
REMARK  status: ('A' for Active; 'I' for Inactive)
REMARK    1  A    between atoms: _1  and  _3
REMARK    2  A    between atoms: _3  and  _4
REMARK    3  A    between atoms: _3  and  _6
REMARK    4  A    between atoms: _6  and  _7
REMARK    5  A    between atoms: _7  and  _8
REMARK    6  A    between atoms: _10  and  _12
REMARK    7  A    between atoms: _12  and  _13
REMARK    8  A    between atoms: _12  and  _15
REMARK    9  A    between atoms: _15  and  _16
REMARK   10  A    between atoms: _16  and  _17
REMARK   11  A    between atoms: _19  and  _21
REMARK   12  A    between atoms: _21  and  _22
REMARK   13  A    between atoms: _21  and  _24
REMARK   14  A    between atoms: _24  and  _25
REMARK   15  A    between atoms: _25  and  _26
REMARK   16  A    between atoms: _26  and  _27
REMARK   17  A    between atoms: _27  and  _28
REMARK   18  A    between atoms: _33  and  _34
REMARK   19  A    between atoms: _39  and  _41
REMARK   20  A    between atoms: _41  and  _42
REMARK   21  A    between atoms: _41  and  _44
REMARK   22  A    between atoms: _47  and  _49
REMARK   23  A    between atoms: _49  and  _50
REMARK   24  A    between atoms: _49  and  _52
REMARK   25  A    between atoms: _52  and  _53
REMARK   26  A    between atoms: _58  and  _60
REMARK   27  A    between atoms: _60  and  _61
REMARK   28  A    between atoms: _60  and  _63
REMARK   29  A    between atoms: _63  and  _64
REMARK   30  A    between atoms: _67  and  _69
REMARK   31  A    between atoms: _69  and  _70
REMARK   32  A    between atoms: _69  and  _72
REMARK   33  A    between atoms: _72  and  _73
REMARK   34  A    between atoms: _79  and  _81
REMARK   35  A    between atoms: _81  and  _82
REMARK   36  A    between atoms: _81  and  _84
REMARK   37  A    between atoms: _84  and  _85
REMARK   38  A    between atoms: _85  and  _86
REMARK   39  A    between atoms: _86  and  _87
REMARK   40  A    between atoms: _87  and  _88
REMARK   41  A    between atoms: _92  and  _94
REMARK   42  A    between atoms: _94  and  _95
REMARK   43  A    between atoms: _94  and  _97
REMARK   44  A    between atoms: _97  and  _98
REMARK   45  A    between atoms: _103  and  _105
REMARK   46  A    between atoms: _105  and  _106
REMARK   47  A    between atoms: _105  and  _108
REMARK   48  A    between atoms: _108  and  _109
REMARK   49  A    between atoms: _112  and  _114
REMARK   50  A    between atoms: _114  and  _115
REMARK   51  A    between atoms: _114  and  _117
REMARK   52  A    between atoms: _117  and  _118
REMARK   53  A    between atoms: _121  and  _123
REMARK   54  A    between atoms: _123  and  _124
REMARK   55  A    between atoms: _123  and  _126
REMARK   56  A    between atoms: _126  and  _127
REMARK   57  A    between atoms: _130  and  _132
REMARK   58  A    between atoms: _132  and  _133
REMARK   59  A    between atoms: _132  and  _135
REMARK   60  A    between atoms: _137  and  _139
REMARK   61  A    between atoms: _139  and  _140
REMARK   62  A    between atoms: _139  and  _142
REMARK   63  A    between atoms: _142  and  _143
REMARK   64  A    between atoms: _143  and  _144
REMARK   65  A    between atoms: _144  and  _145
REMARK   66  A    between atoms: _154  and  _156
REMARK   67  A    between atoms: _156  and  _157
REMARK   68  A    between atoms: _156  and  _159
REMARK   69  A    between atoms: _159  and  _160
REMARK   70  A    between atoms: _160  and  _161
REMARK   71  A    between atoms: _161  and  _162
REMARK   72  A    between atoms: _162  and  _163
REMARK   73  A    between atoms: _167  and  _169
REMARK   74  A    between atoms: _169  and  _170
REMARK   75  A    between atoms: _169  and  _172
REMARK   76  A    between atoms: _172  and  _173
REMARK   77  A    between atoms: _176  and  _178
REMARK   78  A    between atoms: _178  and  _179
REMARK   79  A    between atoms: _178  and  _181
REMARK   80  A    between atoms: _181  and  _182
REMARK   81  A    between atoms: _187  and  _189
REMARK   82  A    between atoms: _189  and  _190
REMARK   83  A    between atoms: _189  and  _192
REMARK   84  A    between atoms: _192  and  _193
REMARK   85  A    between atoms: _199  and  _201
REMARK   86  A    between atoms: _201  and  _202
REMARK   87  A    between atoms: _201  and  _204
REMARK   88  A    between atoms: _204  and  _205
REMARK   89  A    between atoms: _208  and  _210
REMARK   90  A    between atoms: _210  and  _211
REMARK   91  A    between atoms: _214  and  _216
REMARK   92  A    between atoms: _216  and  _217
REMARK   93  A    between atoms: _216  and  _219
REMARK   94  A    between atoms: _219  and  _220
REMARK   95  A    between atoms: _222  and  _224
REMARK   96  A    between atoms: _224  and  _225
REMARK   97  A    between atoms: _224  and  _227
REMARK   98  A    between atoms: _231  and  _233
REMARK   99  A    between atoms: _233  and  _234
REMARK  100  A    between atoms: _233  and  _236
REMARK  101  A    between atoms: _236  and  _237
REMARK  102  A    between atoms: _243  and  _245
REMARK  103  A    between atoms: _245  and  _246
REMARK  104  A    between atoms: _245  and  _248
REMARK  105  A    between atoms: _248  and  _249
REMARK  106  A    between atoms: _249  and  _250
REMARK  107  A    between atoms: _255  and  _257
REMARK  108  A    between atoms: _257  and  _258
REMARK  109  A    between atoms: _257  and  _260
REMARK  110  A    between atoms: _260  and  _261
REMARK                            x       y       z     vdW  Elec       q    Type
REMARK                         _______ _______ _______ _____ _____    ______ ____
ROOT
ATOM      1  O   HOH     1      21.246  42.594   7.800  0.00  0.00    +0.000 OA
ENDROOT
TORSDOF 0
REMARK  Name = ../refined-set-2016/3djo/3djo_pocket.pdb
REMARK  110 active torsions:
REMARK  status: ('A' for Active; 'I' for Inactive)
REMARK    1  A    between atoms: _1  and  _3
REMARK    2  A    between atoms: _3  and  _4
REMARK    3  A    between atoms: _3  and  _6
REMARK    4  A    between atoms: _6  and  _7
REMARK    5  A    between atoms: _7  and  _8
REMARK    6  A    between atoms: _10  and  _12
REMARK    7  A    between atoms: _12  and  _13
REMARK    8  A    between atoms: _12  and  _15
REMARK    9  A    between atoms: _15  and  _16
REMARK   10  A    between atoms: _16  and  _17
REMARK   11  A    between atoms: _19  and  _21
REMARK   12  A    between atoms: _21  and  _22
REMARK   13  A    between atoms: _21  and  _24
REMARK   14  A    between atoms: _24  and  _25
REMARK   15  A    between atoms: _25  and  _26
REMARK   16  A    between atoms: _26  and  _27
REMARK   17  A    between atoms: _27  and  _28
REMARK   18  A    between atoms: _33  and  _34
REMARK   19  A    between atoms: _39  and  _41
REMARK   20  A    between atoms: _41  and  _42
REMARK   21  A    between atoms: _41  and  _44
REMARK   22  A    between atoms: _47  and  _49
REMARK   23  A    between atoms: _49  and  _50
REMARK   24  A    between atoms: _49  and  _52
REMARK   25  A    between atoms: _52  and  _53
REMARK   26  A    between atoms: _58  and  _60
REMARK   27  A    between atoms: _60  and  _61
REMARK   28  A    between atoms: _60  and  _63
REMARK   29  A    between atoms: _63  and  _64
REMARK   30  A    between atoms: _67  and  _69
REMARK   31  A    between atoms: _69  and  _70
REMARK   32  A    between atoms: _69  and  _72
REMARK   33  A    between atoms: _72  and  _73
REMARK   34  A    between atoms: _79  and  _81
REMARK   35  A    between atoms: _81  and  _82
REMARK   36  A    between atoms: _81  and  _84
REMARK   37  A    between atoms: _84  and  _85
REMARK   38  A    between atoms: _85  and  _86
REMARK   39  A    between atoms: _86  and  _87
REMARK   40  A    between atoms: _87  and  _88
REMARK   41  A    between atoms: _92  and  _94
REMARK   42  A    between atoms: _94  and  _95
REMARK   43  A    between atoms: _94  and  _97
REMARK   44  A    between atoms: _97  and  _98
REMARK   45  A    between atoms: _103  and  _105
REMARK   46  A    between atoms: _105  and  _106
REMARK   47  A    between atoms: _105  and  _108
REMARK   48  A    between atoms: _108  and  _109
REMARK   49  A    between atoms: _112  and  _114
REMARK   50  A    between atoms: _114  and  _115
REMARK   51  A    between atoms: _114  and  _117
REMARK   52  A    between atoms: _117  and  _118
REMARK   53  A    between atoms: _121  and  _123
REMARK   54  A    between atoms: _123  and  _124
REMARK   55  A    between atoms: _123  and  _126
REMARK   56  A    between atoms: _126  and  _127
REMARK   57  A    between atoms: _130  and  _132
REMARK   58  A    between atoms: _132  and  _133
REMARK   59  A    between atoms: _132  and  _135
REMARK   60  A    between atoms: _137  and  _139
REMARK   61  A    between atoms: _139  and  _140
REMARK   62  A    between atoms: _139  and  _142
REMARK   63  A    between atoms: _142  and  _143
REMARK   64  A    between atoms: _143  and  _144
REMARK   65  A    between atoms: _144  and  _145
REMARK   66  A    between atoms: _154  and  _156
REMARK   67  A    between atoms: _156  and  _157
REMARK   68  A    between atoms: _156  and  _159
REMARK   69  A    between atoms: _159  and  _160
REMARK   70  A    between atoms: _160  and  _161
REMARK   71  A    between atoms: _161  and  _162
REMARK   72  A    between atoms: _162  and  _163
REMARK   73  A    between atoms: _167  and  _169
REMARK   74  A    between atoms: _169  and  _170
REMARK   75  A    between atoms: _169  and  _172
REMARK   76  A    between atoms: _172  and  _173
REMARK   77  A    between atoms: _176  and  _178
REMARK   78  A    between atoms: _178  and  _179
REMARK   79  A    between atoms: _178  and  _181
REMARK   80  A    between atoms: _181  and  _182
REMARK   81  A    between atoms: _187  and  _189
REMARK   82  A    between atoms: _189  and  _190
REMARK   83  A    between atoms: _189  and  _192
REMARK   84  A    between atoms: _192  and  _193
REMARK   85  A    between atoms: _199  and  _201
REMARK   86  A    between atoms: _201  and  _202
REMARK   87  A    between atoms: _201  and  _204
REMARK   88  A    between atoms: _204  and  _205
REMARK   89  A    between atoms: _208  and  _210
REMARK   90  A    between atoms: _210  and  _211
REMARK   91  A    between atoms: _214  and  _216
REMARK   92  A    between atoms: _216  and  _217
REMARK   93  A    between atoms: _216  and  _219
REMARK   94  A    between atoms: _219  and  _220
REMARK   95  A    between atoms: _222  and  _224
REMARK   96  A    between atoms: _224  and  _225
REMARK   97  A    between atoms: _224  and  _227
REMARK   98  A    between atoms: _231  and  _233
REMARK   99  A    between atoms: _233  and  _234
REMARK  100  A    between atoms: _233  and  _236
REMARK  101  A    between atoms: _236  and  _237
REMARK  102  A    between atoms: _243  and  _245
REMARK  103  A    between atoms: _245  and  _246
REMARK  104  A    between atoms: _245  and  _248
REMARK  105  A    between atoms: _248  and  _249
REMARK  106  A    between atoms: _249  and  _250
REMARK  107  A    between atoms: _255  and  _257
REMARK  108  A    between atoms: _257  and  _258
REMARK  109  A    between atoms: _257  and  _260
REMARK  110  A    between atoms: _260  and  _261
REMARK                            x       y       z     vdW  Elec       q    Type
REMARK                         _______ _______ _______ _____ _____    ______ ____
ROOT
ATOM      1  O   HOH     1      28.288  39.992  12.653  0.00  0.00    +0.000 OA
ENDROOT
TORSDOF 0
REMARK  Name = ../refined-set-2016/3djo/3djo_pocket.pdb
REMARK  110 active torsions:
REMARK  status: ('A' for Active; 'I' for Inactive)
REMARK    1  A    between atoms: _1  and  _3
REMARK    2  A    between atoms: _3  and  _4
REMARK    3  A    between atoms: _3  and  _6
REMARK    4  A    between atoms: _6  and  _7
REMARK    5  A    between atoms: _7  and  _8
REMARK    6  A    between atoms: _10  and  _12
REMARK    7  A    between atoms: _12  and  _13
REMARK    8  A    between atoms: _12  and  _15
REMARK    9  A    between atoms: _15  and  _16
REMARK   10  A    between atoms: _16  and  _17
REMARK   11  A    between atoms: _19  and  _21
REMARK   12  A    between atoms: _21  and  _22
REMARK   13  A    between atoms: _21  and  _24
REMARK   14  A    between atoms: _24  and  _25
REMARK   15  A    between atoms: _25  and  _26
REMARK   16  A    between atoms: _26  and  _27
REMARK   17  A    between atoms: _27  and  _28
REMARK   18  A    between atoms: _33  and  _34
REMARK   19  A    between atoms: _39  and  _41
REMARK   20  A    between atoms: _41  and  _42
REMARK   21  A    between atoms: _41  and  _44
REMARK   22  A    between atoms: _47  and  _49
REMARK   23  A    between atoms: _49  and  _50
REMARK   24  A    between atoms: _49  and  _52
REMARK   25  A    between atoms: _52  and  _53
REMARK   26  A    between atoms: _58  and  _60
REMARK   27  A    between atoms: _60  and  _61
REMARK   28  A    between atoms: _60  and  _63
REMARK   29  A    between atoms: _63  and  _64
REMARK   30  A    between atoms: _67  and  _69
REMARK   31  A    between atoms: _69  and  _70
REMARK   32  A    between atoms: _69  and  _72
REMARK   33  A    between atoms: _72  and  _73
REMARK   34  A    between atoms: _79  and  _81
REMARK   35  A    between atoms: _81  and  _82
REMARK   36  A    between atoms: _81  and  _84
REMARK   37  A    between atoms: _84  and  _85
REMARK   38  A    between atoms: _85  and  _86
REMARK   39  A    between atoms: _86  and  _87
REMARK   40  A    between atoms: _87  and  _88
REMARK   41  A    between atoms: _92  and  _94
REMARK   42  A    between atoms: _94  and  _95
REMARK   43  A    between atoms: _94  and  _97
REMARK   44  A    between atoms: _97  and  _98
REMARK   45  A    between atoms: _103  and  _105
REMARK   46  A    between atoms: _105  and  _106
REMARK   47  A    between atoms: _105  and  _108
REMARK   48  A    between atoms: _108  and  _109
REMARK   49  A    between atoms: _112  and  _114
REMARK   50  A    between atoms: _114  and  _115
REMARK   51  A    between atoms: _114  and  _117
REMARK   52  A    between atoms: _117  and  _118
REMARK   53  A    between atoms: _121  and  _123
REMARK   54  A    between atoms: _123  and  _124
REMARK   55  A    between atoms: _123  and  _126
REMARK   56  A    between atoms: _126  and  _127
REMARK   57  A    between atoms: _130  and  _132
REMARK   58  A    between atoms: _132  and  _133
REMARK   59  A    between atoms: _132  and  _135
REMARK   60  A    between atoms: _137  and  _139
REMARK   61  A    between atoms: _139  and  _140
REMARK   62  A    between atoms: _139  and  _142
REMARK   63  A    between atoms: _142  and  _143
REMARK   64  A    between atoms: _143  and  _144
REMARK   65  A    between atoms: _144  and  _145
REMARK   66  A    between atoms: _154  and  _156
REMARK   67  A    between atoms: _156  and  _157
REMARK   68  A    between atoms: _156  and  _159
REMARK   69  A    between atoms: _159  and  _160
REMARK   70  A    between atoms: _160  and  _161
REMARK   71  A    between atoms: _161  and  _162
REMARK   72  A    between atoms: _162  and  _163
REMARK   73  A    between atoms: _167  and  _169
REMARK   74  A    between atoms: _169  and  _170
REMARK   75  A    between atoms: _169  and  _172
REMARK   76  A    between atoms: _172  and  _173
REMARK   77  A    between atoms: _176  and  _178
REMARK   78  A    between atoms: _178  and  _179
REMARK   79  A    between atoms: _178  and  _181
REMARK   80  A    between atoms: _181  and  _182
REMARK   81  A    between atoms: _187  and  _189
REMARK   82  A    between atoms: _189  and  _190
REMARK   83  A    between atoms: _189  and  _192
REMARK   84  A    between atoms: _192  and  _193
REMARK   85  A    between atoms: _199  and  _201
REMARK   86  A    between atoms: _201  and  _202
REMARK   87  A    between atoms: _201  and  _204
REMARK   88  A    between atoms: _204  and  _205
REMARK   89  A    between atoms: _208  and  _210
REMARK   90  A    between atoms: _210  and  _211
REMARK   91  A    between atoms: _214  and  _216
REMARK   92  A    between atoms: _216  and  _217
REMARK   93  A    between atoms: _216  and  _219
REMARK   94  A    between atoms: _219  and  _220
REMARK   95  A    between atoms: _222  and  _224
REMARK   96  A    between atoms: _224  and  _225
REMARK   97  A    between atoms: _224  and  _227
REMARK   98  A    between atoms: _231  and  _233
REMARK   99  A    between atoms: _233  and  _234
REMARK  100  A    between atoms: _233  and  _236
REMARK  101  A    between atoms: _236  and  _237
REMARK  102  A    between atoms: _243  and  _245
REMARK  103  A    between atoms: _245  and  _246
REMARK  104  A    between atoms: _245  and  _248
REMARK  105  A    between atoms: _248  and  _249
REMARK  106  A    between atoms: _249  and  _250
REMARK  107  A    between atoms: _255  and  _257
REMARK  108  A    between atoms: _257  and  _258
REMARK  109  A    between atoms: _257  and  _260
REMARK  110  A    between atoms: _260  and  _261
REMARK                            x       y       z     vdW  Elec       q    Type
REMARK                         _______ _______ _______ _____ _____    ______ ____
ROOT
ATOM      1  O   HOH     1      27.161  40.041  10.156  0.00  0.00    +0.000 OA
ENDROOT
TORSDOF 0
REMARK  Name = ../refined-set-2016/3djo/3djo_pocket.pdb
REMARK  110 active torsions:
REMARK  status: ('A' for Active; 'I' for Inactive)
REMARK    1  A    between atoms: _1  and  _3
REMARK    2  A    between atoms: _3  and  _4
REMARK    3  A    between atoms: _3  and  _6
REMARK    4  A    between atoms: _6  and  _7
REMARK    5  A    between atoms: _7  and  _8
REMARK    6  A    between atoms: _10  and  _12
REMARK    7  A    between atoms: _12  and  _13
REMARK    8  A    between atoms: _12  and  _15
REMARK    9  A    between atoms: _15  and  _16
REMARK   10  A    between atoms: _16  and  _17
REMARK   11  A    between atoms: _19  and  _21
REMARK   12  A    between atoms: _21  and  _22
REMARK   13  A    between atoms: _21  and  _24
REMARK   14  A    between atoms: _24  and  _25
REMARK   15  A    between atoms: _25  and  _26
REMARK   16  A    between atoms: _26  and  _27
REMARK   17  A    between atoms: _27  and  _28
REMARK   18  A    between atoms: _33  and  _34
REMARK   19  A    between atoms: _39  and  _41
REMARK   20  A    between atoms: _41  and  _42
REMARK   21  A    between atoms: _41  and  _44
REMARK   22  A    between atoms: _47  and  _49
REMARK   23  A    between atoms: _49  and  _50
REMARK   24  A    between atoms: _49  and  _52
REMARK   25  A    between atoms: _52  and  _53
REMARK   26  A    between atoms: _58  and  _60
REMARK   27  A    between atoms: _60  and  _61
REMARK   28  A    between atoms: _60  and  _63
REMARK   29  A    between atoms: _63  and  _64
REMARK   30  A    between atoms: _67  and  _69
REMARK   31  A    between atoms: _69  and  _70
REMARK   32  A    between atoms: _69  and  _72
REMARK   33  A    between atoms: _72  and  _73
REMARK   34  A    between atoms: _79  and  _81
REMARK   35  A    between atoms: _81  and  _82
REMARK   36  A    between atoms: _81  and  _84
REMARK   37  A    between atoms: _84  and  _85
REMARK   38  A    between atoms: _85  and  _86
REMARK   39  A    between atoms: _86  and  _87
REMARK   40  A    between atoms: _87  and  _88
REMARK   41  A    between atoms: _92  and  _94
REMARK   42  A    between atoms: _94  and  _95
REMARK   43  A    between atoms: _94  and  _97
REMARK   44  A    between atoms: _97  and  _98
REMARK   45  A    between atoms: _103  and  _105
REMARK   46  A    between atoms: _105  and  _106
REMARK   47  A    between atoms: _105  and  _108
REMARK   48  A    between atoms: _108  and  _109
REMARK   49  A    between atoms: _112  and  _114
REMARK   50  A    between atoms: _114  and  _115
REMARK   51  A    between atoms: _114  and  _117
REMARK   52  A    between atoms: _117  and  _118
REMARK   53  A    between atoms: _121  and  _123
REMARK   54  A    between atoms: _123  and  _124
REMARK   55  A    between atoms: _123  and  _126
REMARK   56  A    between atoms: _126  and  _127
REMARK   57  A    between atoms: _130  and  _132
REMARK   58  A    between atoms: _132  and  _133
REMARK   59  A    between atoms: _132  and  _135
REMARK   60  A    between atoms: _137  and  _139
REMARK   61  A    between atoms: _139  and  _140
REMARK   62  A    between atoms: _139  and  _142
REMARK   63  A    between atoms: _142  and  _143
REMARK   64  A    between atoms: _143  and  _144
REMARK   65  A    between atoms: _144  and  _145
REMARK   66  A    between atoms: _154  and  _156
REMARK   67  A    between atoms: _156  and  _157
REMARK   68  A    between atoms: _156  and  _159
REMARK   69  A    between atoms: _159  and  _160
REMARK   70  A    between atoms: _160  and  _161
REMARK   71  A    between atoms: _161  and  _162
REMARK   72  A    between atoms: _162  and  _163
REMARK   73  A    between atoms: _167  and  _169
REMARK   74  A    between atoms: _169  and  _170
REMARK   75  A    between atoms: _169  and  _172
REMARK   76  A    between atoms: _172  and  _173
REMARK   77  A    between atoms: _176  and  _178
REMARK   78  A    between atoms: _178  and  _179
REMARK   79  A    between atoms: _178  and  _181
REMARK   80  A    between atoms: _181  and  _182
REMARK   81  A    between atoms: _187  and  _189
REMARK   82  A    between atoms: _189  and  _190
REMARK   83  A    between atoms: _189  and  _192
REMARK   84  A    between atoms: _192  and  _193
REMARK   85  A    between atoms: _199  and  _201
REMARK   86  A    between atoms: _201  and  _202
REMARK   87  A    between atoms: _201  and  _204
REMARK   88  A    between atoms: _204  and  _205
REMARK   89  A    between atoms: _208  and  _210
REMARK   90  A    between atoms: _210  and  _211
REMARK   91  A    between atoms: _214  and  _216
REMARK   92  A    between atoms: _216  and  _217
REMARK   93  A    between atoms: _216  and  _219
REMARK   94  A    between atoms: _219  and  _220
REMARK   95  A    between atoms: _222  and  _224
REMARK   96  A    between atoms: _224  and  _225
REMARK   97  A    between atoms: _224  and  _227
REMARK   98  A    between atoms: _231  and  _233
REMARK   99  A    between atoms: _233  and  _234
REMARK  100  A    between atoms: _233  and  _236
REMARK  101  A    between atoms: _236  and  _237
REMARK  102  A    between atoms: _243  and  _245
REMARK  103  A    between atoms: _245  and  _246
REMARK  104  A    between atoms: _245  and  _248
REMARK  105  A    between atoms: _248  and  _249
REMARK  106  A    between atoms: _249  and  _250
REMARK  107  A    between atoms: _255  and  _257
REMARK  108  A    between atoms: _257  and  _258
REMARK  109  A    between atoms: _257  and  _260
REMARK  110  A    between atoms: _260  and  _261
REMARK                            x       y       z     vdW  Elec       q    Type
REMARK                         _______ _______ _______ _____ _____    ______ ____
ROOT
ATOM      1  O   HOH     1      26.900  42.855   9.614  0.00  0.00    +0.000 OA
ENDROOT
TORSDOF 0
REMARK  Name = ../refined-set-2016/3djo/3djo_pocket.pdb
REMARK  110 active torsions:
REMARK  status: ('A' for Active; 'I' for Inactive)
REMARK    1  A    between atoms: _1  and  _3
REMARK    2  A    between atoms: _3  and  _4
REMARK    3  A    between atoms: _3  and  _6
REMARK    4  A    between atoms: _6  and  _7
REMARK    5  A    between atoms: _7  and  _8
REMARK    6  A    between atoms: _10  and  _12
REMARK    7  A    between atoms: _12  and  _13
REMARK    8  A    between atoms: _12  and  _15
REMARK    9  A    between atoms: _15  and  _16
REMARK   10  A    between atoms: _16  and  _17
REMARK   11  A    between atoms: _19  and  _21
REMARK   12  A    between atoms: _21  and  _22
REMARK   13  A    between atoms: _21  and  _24
REMARK   14  A    between atoms: _24  and  _25
REMARK   15  A    between atoms: _25  and  _26
REMARK   16  A    between atoms: _26  and  _27
REMARK   17  A    between atoms: _27  and  _28
REMARK   18  A    between atoms: _33  and  _34
REMARK   19  A    between atoms: _39  and  _41
REMARK   20  A    between atoms: _41  and  _42
REMARK   21  A    between atoms: _41  and  _44
REMARK   22  A    between atoms: _47  and  _49
REMARK   23  A    between atoms: _49  and  _50
REMARK   24  A    between atoms: _49  and  _52
REMARK   25  A    between atoms: _52  and  _53
REMARK   26  A    between atoms: _58  and  _60
REMARK   27  A    between atoms: _60  and  _61
REMARK   28  A    between atoms: _60  and  _63
REMARK   29  A    between atoms: _63  and  _64
REMARK   30  A    between atoms: _67  and  _69
REMARK   31  A    between atoms: _69  and  _70
REMARK   32  A    between atoms: _69  and  _72
REMARK   33  A    between atoms: _72  and  _73
REMARK   34  A    between atoms: _79  and  _81
REMARK   35  A    between atoms: _81  and  _82
REMARK   36  A    between atoms: _81  and  _84
REMARK   37  A    between atoms: _84  and  _85
REMARK   38  A    between atoms: _85  and  _86
REMARK   39  A    between atoms: _86  and  _87
REMARK   40  A    between atoms: _87  and  _88
REMARK   41  A    between atoms: _92  and  _94
REMARK   42  A    between atoms: _94  and  _95
REMARK   43  A    between atoms: _94  and  _97
REMARK   44  A    between atoms: _97  and  _98
REMARK   45  A    between atoms: _103  and  _105
REMARK   46  A    between atoms: _105  and  _106
REMARK   47  A    between atoms: _105  and  _108
REMARK   48  A    between atoms: _108  and  _109
REMARK   49  A    between atoms: _112  and  _114
REMARK   50  A    between atoms: _114  and  _115
REMARK   51  A    between atoms: _114  and  _117
REMARK   52  A    between atoms: _117  and  _118
REMARK   53  A    between atoms: _121  and  _123
REMARK   54  A    between atoms: _123  and  _124
REMARK   55  A    between atoms: _123  and  _126
REMARK   56  A    between atoms: _126  and  _127
REMARK   57  A    between atoms: _130  and  _132
REMARK   58  A    between atoms: _132  and  _133
REMARK   59  A    between atoms: _132  and  _135
REMARK   60  A    between atoms: _137  and  _139
REMARK   61  A    between atoms: _139  and  _140
REMARK   62  A    between atoms: _139  and  _142
REMARK   63  A    between atoms: _142  and  _143
REMARK   64  A    between atoms: _143  and  _144
REMARK   65  A    between atoms: _144  and  _145
REMARK   66  A    between atoms: _154  and  _156
REMARK   67  A    between atoms: _156  and  _157
REMARK   68  A    between atoms: _156  and  _159
REMARK   69  A    between atoms: _159  and  _160
REMARK   70  A    between atoms: _160  and  _161
REMARK   71  A    between atoms: _161  and  _162
REMARK   72  A    between atoms: _162  and  _163
REMARK   73  A    between atoms: _167  and  _169
REMARK   74  A    between atoms: _169  and  _170
REMARK   75  A    between atoms: _169  and  _172
REMARK   76  A    between atoms: _172  and  _173
REMARK   77  A    between atoms: _176  and  _178
REMARK   78  A    between atoms: _178  and  _179
REMARK   79  A    between atoms: _178  and  _181
REMARK   80  A    between atoms: _181  and  _182
REMARK   81  A    between atoms: _187  and  _189
REMARK   82  A    between atoms: _189  and  _190
REMARK   83  A    between atoms: _189  and  _192
REMARK   84  A    between atoms: _192  and  _193
REMARK   85  A    between atoms: _199  and  _201
REMARK   86  A    between atoms: _201  and  _202
REMARK   87  A    between atoms: _201  and  _204
REMARK   88  A    between atoms: _204  and  _205
REMARK   89  A    between atoms: _208  and  _210
REMARK   90  A    between atoms: _210  and  _211
REMARK   91  A    between atoms: _214  and  _216
REMARK   92  A    between atoms: _216  and  _217
REMARK   93  A    between atoms: _216  and  _219
REMARK   94  A    between atoms: _219  and  _220
REMARK   95  A    between atoms: _222  and  _224
REMARK   96  A    between atoms: _224  and  _225
REMARK   97  A    between atoms: _224  and  _227
REMARK   98  A    between atoms: _231  and  _233
REMARK   99  A    between atoms: _233  and  _234
REMARK  100  A    between atoms: _233  and  _236
REMARK  101  A    between atoms: _236  and  _237
REMARK  102  A    between atoms: _243  and  _245
REMARK  103  A    between atoms: _245  and  _246
REMARK  104  A    between atoms: _245  and  _248
REMARK  105  A    between atoms: _248  and  _249
REMARK  106  A    between atoms: _249  and  _250
REMARK  107  A    between atoms: _255  and  _257
REMARK  108  A    between atoms: _257  and  _258
REMARK  109  A    between atoms: _257  and  _260
REMARK  110  A    between atoms: _260  and  _261
REMARK                            x       y       z     vdW  Elec       q    Type
REMARK                         _______ _______ _______ _____ _____    ______ ____
ROOT
ATOM      1  O   HOH     1      25.844  44.890   7.842  0.00  0.00    +0.000 OA
ENDROOT
TORSDOF 0
REMARK  Name = ../refined-set-2016/3djo/3djo_pocket.pdb
REMARK  110 active torsions:
REMARK  status: ('A' for Active; 'I' for Inactive)
REMARK    1  A    between atoms: _1  and  _3
REMARK    2  A    between atoms: _3  and  _4
REMARK    3  A    between atoms: _3  and  _6
REMARK    4  A    between atoms: _6  and  _7
REMARK    5  A    between atoms: _7  and  _8
REMARK    6  A    between atoms: _10  and  _12
REMARK    7  A    between atoms: _12  and  _13
REMARK    8  A    between atoms: _12  and  _15
REMARK    9  A    between atoms: _15  and  _16
REMARK   10  A    between atoms: _16  and  _17
REMARK   11  A    between atoms: _19  and  _21
REMARK   12  A    between atoms: _21  and  _22
REMARK   13  A    between atoms: _21  and  _24
REMARK   14  A    between atoms: _24  and  _25
REMARK   15  A    between atoms: _25  and  _26
REMARK   16  A    between atoms: _26  and  _27
REMARK   17  A    between atoms: _27  and  _28
REMARK   18  A    between atoms: _33  and  _34
REMARK   19  A    between atoms: _39  and  _41
REMARK   20  A    between atoms: _41  and  _42
REMARK   21  A    between atoms: _41  and  _44
REMARK   22  A    between atoms: _47  and  _49
REMARK   23  A    between atoms: _49  and  _50
REMARK   24  A    between atoms: _49  and  _52
REMARK   25  A    between atoms: _52  and  _53
REMARK   26  A    between atoms: _58  and  _60
REMARK   27  A    between atoms: _60  and  _61
REMARK   28  A    between atoms: _60  and  _63
REMARK   29  A    between atoms: _63  and  _64
REMARK   30  A    between atoms: _67  and  _69
REMARK   31  A    between atoms: _69  and  _70
REMARK   32  A    between atoms: _69  and  _72
REMARK   33  A    between atoms: _72  and  _73
REMARK   34  A    between atoms: _79  and  _81
REMARK   35  A    between atoms: _81  and  _82
REMARK   36  A    between atoms: _81  and  _84
REMARK   37  A    between atoms: _84  and  _85
REMARK   38  A    between atoms: _85  and  _86
REMARK   39  A    between atoms: _86  and  _87
REMARK   40  A    between atoms: _87  and  _88
REMARK   41  A    between atoms: _92  and  _94
REMARK   42  A    between atoms: _94  and  _95
REMARK   43  A    between atoms: _94  and  _97
REMARK   44  A    between atoms: _97  and  _98
REMARK   45  A    between atoms: _103  and  _105
REMARK   46  A    between atoms: _105  and  _106
REMARK   47  A    between atoms: _105  and  _108
REMARK   48  A    between atoms: _108  and  _109
REMARK   49  A    between atoms: _112  and  _114
REMARK   50  A    between atoms: _114  and  _115
REMARK   51  A    between atoms: _114  and  _117
REMARK   52  A    between atoms: _117  and  _118
REMARK   53  A    between atoms: _121  and  _123
REMARK   54  A    between atoms: _123  and  _124
REMARK   55  A    between atoms: _123  and  _126
REMARK   56  A    between atoms: _126  and  _127
REMARK   57  A    between atoms: _130  and  _132
REMARK   58  A    between atoms: _132  and  _133
REMARK   59  A    between atoms: _132  and  _135
REMARK   60  A    between atoms: _137  and  _139
REMARK   61  A    between atoms: _139  and  _140
REMARK   62  A    between atoms: _139  and  _142
REMARK   63  A    between atoms: _142  and  _143
REMARK   64  A    between atoms: _143  and  _144
REMARK   65  A    between atoms: _144  and  _145
REMARK   66  A    between atoms: _154  and  _156
REMARK   67  A    between atoms: _156  and  _157
REMARK   68  A    between atoms: _156  and  _159
REMARK   69  A    between atoms: _159  and  _160
REMARK   70  A    between atoms: _160  and  _161
REMARK   71  A    between atoms: _161  and  _162
REMARK   72  A    between atoms: _162  and  _163
REMARK   73  A    between atoms: _167  and  _169
REMARK   74  A    between atoms: _169  and  _170
REMARK   75  A    between atoms: _169  and  _172
REMARK   76  A    between atoms: _172  and  _173
REMARK   77  A    between atoms: _176  and  _178
REMARK   78  A    between atoms: _178  and  _179
REMARK   79  A    between atoms: _178  and  _181
REMARK   80  A    between atoms: _181  and  _182
REMARK   81  A    between atoms: _187  and  _189
REMARK   82  A    between atoms: _189  and  _190
REMARK   83  A    between atoms: _189  and  _192
REMARK   84  A    between atoms: _192  and  _193
REMARK   85  A    between atoms: _199  and  _201
REMARK   86  A    between atoms: _201  and  _202
REMARK   87  A    between atoms: _201  and  _204
REMARK   88  A    between atoms: _204  and  _205
REMARK   89  A    between atoms: _208  and  _210
REMARK   90  A    between atoms: _210  and  _211
REMARK   91  A    between atoms: _214  and  _216
REMARK   92  A    between atoms: _216  and  _217
REMARK   93  A    between atoms: _216  and  _219
REMARK   94  A    between atoms: _219  and  _220
REMARK   95  A    between atoms: _222  and  _224
REMARK   96  A    between atoms: _224  and  _225
REMARK   97  A    between atoms: _224  and  _227
REMARK   98  A    between atoms: _231  and  _233
REMARK   99  A    between atoms: _233  and  _234
REMARK  100  A    between atoms: _233  and  _236
REMARK  101  A    between atoms: _236  and  _237
REMARK  102  A    between atoms: _243  and  _245
REMARK  103  A    between atoms: _245  and  _246
REMARK  104  A    between atoms: _245  and  _248
REMARK  105  A    between atoms: _248  and  _249
REMARK  106  A    between atoms: _249  and  _250
REMARK  107  A    between atoms: _255  and  _257
REMARK  108  A    between atoms: _257  and  _258
REMARK  109  A    between atoms: _257  and  _260
REMARK  110  A    between atoms: _260  and  _261
REMARK                            x       y       z     vdW  Elec       q    Type
REMARK                         _______ _______ _______ _____ _____    ______ ____
ROOT
ATOM      1  O   HOH     1      29.237  47.546   3.527  0.00  0.00    +0.000 OA
ENDROOT
TORSDOF 0
REMARK  Name = ../refined-set-2016/3djo/3djo_pocket.pdb
REMARK  110 active torsions:
REMARK  status: ('A' for Active; 'I' for Inactive)
REMARK    1  A    between atoms: _1  and  _3
REMARK    2  A    between atoms: _3  and  _4
REMARK    3  A    between atoms: _3  and  _6
REMARK    4  A    between atoms: _6  and  _7
REMARK    5  A    between atoms: _7  and  _8
REMARK    6  A    between atoms: _10  and  _12
REMARK    7  A    between atoms: _12  and  _13
REMARK    8  A    between atoms: _12  and  _15
REMARK    9  A    between atoms: _15  and  _16
REMARK   10  A    between atoms: _16  and  _17
REMARK   11  A    between atoms: _19  and  _21
REMARK   12  A    between atoms: _21  and  _22
REMARK   13  A    between atoms: _21  and  _24
REMARK   14  A    between atoms: _24  and  _25
REMARK   15  A    between atoms: _25  and  _26
REMARK   16  A    between atoms: _26  and  _27
REMARK   17  A    between atoms: _27  and  _28
REMARK   18  A    between atoms: _33  and  _34
REMARK   19  A    between atoms: _39  and  _41
REMARK   20  A    between atoms: _41  and  _42
REMARK   21  A    between atoms: _41  and  _44
REMARK   22  A    between atoms: _47  and  _49
REMARK   23  A    between atoms: _49  and  _50
REMARK   24  A    between atoms: _49  and  _52
REMARK   25  A    between atoms: _52  and  _53
REMARK   26  A    between atoms: _58  and  _60
REMARK   27  A    between atoms: _60  and  _61
REMARK   28  A    between atoms: _60  and  _63
REMARK   29  A    between atoms: _63  and  _64
REMARK   30  A    between atoms: _67  and  _69
REMARK   31  A    between atoms: _69  and  _70
REMARK   32  A    between atoms: _69  and  _72
REMARK   33  A    between atoms: _72  and  _73
REMARK   34  A    between atoms: _79  and  _81
REMARK   35  A    between atoms: _81  and  _82
REMARK   36  A    between atoms: _81  and  _84
REMARK   37  A    between atoms: _84  and  _85
REMARK   38  A    between atoms: _85  and  _86
REMARK   39  A    between atoms: _86  and  _87
REMARK   40  A    between atoms: _87  and  _88
REMARK   41  A    between atoms: _92  and  _94
REMARK   42  A    between atoms: _94  and  _95
REMARK   43  A    between atoms: _94  and  _97
REMARK   44  A    between atoms: _97  and  _98
REMARK   45  A    between atoms: _103  and  _105
REMARK   46  A    between atoms: _105  and  _106
REMARK   47  A    between atoms: _105  and  _108
REMARK   48  A    between atoms: _108  and  _109
REMARK   49  A    between atoms: _112  and  _114
REMARK   50  A    between atoms: _114  and  _115
REMARK   51  A    between atoms: _114  and  _117
REMARK   52  A    between atoms: _117  and  _118
REMARK   53  A    between atoms: _121  and  _123
REMARK   54  A    between atoms: _123  and  _124
REMARK   55  A    between atoms: _123  and  _126
REMARK   56  A    between atoms: _126  and  _127
REMARK   57  A    between atoms: _130  and  _132
REMARK   58  A    between atoms: _132  and  _133
REMARK   59  A    between atoms: _132  and  _135
REMARK   60  A    between atoms: _137  and  _139
REMARK   61  A    between atoms: _139  and  _140
REMARK   62  A    between atoms: _139  and  _142
REMARK   63  A    between atoms: _142  and  _143
REMARK   64  A    between atoms: _143  and  _144
REMARK   65  A    between atoms: _144  and  _145
REMARK   66  A    between atoms: _154  and  _156
REMARK   67  A    between atoms: _156  and  _157
REMARK   68  A    between atoms: _156  and  _159
REMARK   69  A    between atoms: _159  and  _160
REMARK   70  A    between atoms: _160  and  _161
REMARK   71  A    between atoms: _161  and  _162
REMARK   72  A    between atoms: _162  and  _163
REMARK   73  A    between atoms: _167  and  _169
REMARK   74  A    between atoms: _169  and  _170
REMARK   75  A    between atoms: _169  and  _172
REMARK   76  A    between atoms: _172  and  _173
REMARK   77  A    between atoms: _176  and  _178
REMARK   78  A    between atoms: _178  and  _179
REMARK   79  A    between atoms: _178  and  _181
REMARK   80  A    between atoms: _181  and  _182
REMARK   81  A    between atoms: _187  and  _189
REMARK   82  A    between atoms: _189  and  _190
REMARK   83  A    between atoms: _189  and  _192
REMARK   84  A    between atoms: _192  and  _193
REMARK   85  A    between atoms: _199  and  _201
REMARK   86  A    between atoms: _201  and  _202
REMARK   87  A    between atoms: _201  and  _204
REMARK   88  A    between atoms: _204  and  _205
REMARK   89  A    between atoms: _208  and  _210
REMARK   90  A    between atoms: _210  and  _211
REMARK   91  A    between atoms: _214  and  _216
REMARK   92  A    between atoms: _216  and  _217
REMARK   93  A    between atoms: _216  and  _219
REMARK   94  A    between atoms: _219  and  _220
REMARK   95  A    between atoms: _222  and  _224
REMARK   96  A    between atoms: _224  and  _225
REMARK   97  A    between atoms: _224  and  _227
REMARK   98  A    between atoms: _231  and  _233
REMARK   99  A    between atoms: _233  and  _234
REMARK  100  A    between atoms: _233  and  _236
REMARK  101  A    between atoms: _236  and  _237
REMARK  102  A    between atoms: _243  and  _245
REMARK  103  A    between atoms: _245  and  _246
REMARK  104  A    between atoms: _245  and  _248
REMARK  105  A    between atoms: _248  and  _249
REMARK  106  A    between atoms: _249  and  _250
REMARK  107  A    between atoms: _255  and  _257
REMARK  108  A    between atoms: _257  and  _258
REMARK  109  A    between atoms: _257  and  _260
REMARK  110  A    between atoms: _260  and  _261
REMARK                            x       y       z     vdW  Elec       q    Type
REMARK                         _______ _______ _______ _____ _____    ______ ____
ROOT
ATOM      1  O   HOH     1      35.807  46.153   0.652  0.00  0.00    +0.000 OA
ENDROOT
TORSDOF 0
REMARK  Name = ../refined-set-2016/3djo/3djo_pocket.pdb
REMARK  110 active torsions:
REMARK  status: ('A' for Active; 'I' for Inactive)
REMARK    1  A    between atoms: _1  and  _3
REMARK    2  A    between atoms: _3  and  _4
REMARK    3  A    between atoms: _3  and  _6
REMARK    4  A    between atoms: _6  and  _7
REMARK    5  A    between atoms: _7  and  _8
REMARK    6  A    between atoms: _10  and  _12
REMARK    7  A    between atoms: _12  and  _13
REMARK    8  A    between atoms: _12  and  _15
REMARK    9  A    between atoms: _15  and  _16
REMARK   10  A    between atoms: _16  and  _17
REMARK   11  A    between atoms: _19  and  _21
REMARK   12  A    between atoms: _21  and  _22
REMARK   13  A    between atoms: _21  and  _24
REMARK   14  A    between atoms: _24  and  _25
REMARK   15  A    between atoms: _25  and  _26
REMARK   16  A    between atoms: _26  and  _27
REMARK   17  A    between atoms: _27  and  _28
REMARK   18  A    between atoms: _33  and  _34
REMARK   19  A    between atoms: _39  and  _41
REMARK   20  A    between atoms: _41  and  _42
REMARK   21  A    between atoms: _41  and  _44
REMARK   22  A    between atoms: _47  and  _49
REMARK   23  A    between atoms: _49  and  _50
REMARK   24  A    between atoms: _49  and  _52
REMARK   25  A    between atoms: _52  and  _53
REMARK   26  A    between atoms: _58  and  _60
REMARK   27  A    between atoms: _60  and  _61
REMARK   28  A    between atoms: _60  and  _63
REMARK   29  A    between atoms: _63  and  _64
REMARK   30  A    between atoms: _67  and  _69
REMARK   31  A    between atoms: _69  and  _70
REMARK   32  A    between atoms: _69  and  _72
REMARK   33  A    between atoms: _72  and  _73
REMARK   34  A    between atoms: _79  and  _81
REMARK   35  A    between atoms: _81  and  _82
REMARK   36  A    between atoms: _81  and  _84
REMARK   37  A    between atoms: _84  and  _85
REMARK   38  A    between atoms: _85  and  _86
REMARK   39  A    between atoms: _86  and  _87
REMARK   40  A    between atoms: _87  and  _88
REMARK   41  A    between atoms: _92  and  _94
REMARK   42  A    between atoms: _94  and  _95
REMARK   43  A    between atoms: _94  and  _97
REMARK   44  A    between atoms: _97  and  _98
REMARK   45  A    between atoms: _103  and  _105
REMARK   46  A    between atoms: _105  and  _106
REMARK   47  A    between atoms: _105  and  _108
REMARK   48  A    between atoms: _108  and  _109
REMARK   49  A    between atoms: _112  and  _114
REMARK   50  A    between atoms: _114  and  _115
REMARK   51  A    between atoms: _114  and  _117
REMARK   52  A    between atoms: _117  and  _118
REMARK   53  A    between atoms: _121  and  _123
REMARK   54  A    between atoms: _123  and  _124
REMARK   55  A    between atoms: _123  and  _126
REMARK   56  A    between atoms: _126  and  _127
REMARK   57  A    between atoms: _130  and  _132
REMARK   58  A    between atoms: _132  and  _133
REMARK   59  A    between atoms: _132  and  _135
REMARK   60  A    between atoms: _137  and  _139
REMARK   61  A    between atoms: _139  and  _140
REMARK   62  A    between atoms: _139  and  _142
REMARK   63  A    between atoms: _142  and  _143
REMARK   64  A    between atoms: _143  and  _144
REMARK   65  A    between atoms: _144  and  _145
REMARK   66  A    between atoms: _154  and  _156
REMARK   67  A    between atoms: _156  and  _157
REMARK   68  A    between atoms: _156  and  _159
REMARK   69  A    between atoms: _159  and  _160
REMARK   70  A    between atoms: _160  and  _161
REMARK   71  A    between atoms: _161  and  _162
REMARK   72  A    between atoms: _162  and  _163
REMARK   73  A    between atoms: _167  and  _169
REMARK   74  A    between atoms: _169  and  _170
REMARK   75  A    between atoms: _169  and  _172
REMARK   76  A    between atoms: _172  and  _173
REMARK   77  A    between atoms: _176  and  _178
REMARK   78  A    between atoms: _178  and  _179
REMARK   79  A    between atoms: _178  and  _181
REMARK   80  A    between atoms: _181  and  _182
REMARK   81  A    between atoms: _187  and  _189
REMARK   82  A    between atoms: _189  and  _190
REMARK   83  A    between atoms: _189  and  _192
REMARK   84  A    between atoms: _192  and  _193
REMARK   85  A    between atoms: _199  and  _201
REMARK   86  A    between atoms: _201  and  _202
REMARK   87  A    between atoms: _201  and  _204
REMARK   88  A    between atoms: _204  and  _205
REMARK   89  A    between atoms: _208  and  _210
REMARK   90  A    between atoms: _210  and  _211
REMARK   91  A    between atoms: _214  and  _216
REMARK   92  A    between atoms: _216  and  _217
REMARK   93  A    between atoms: _216  and  _219
REMARK   94  A    between atoms: _219  and  _220
REMARK   95  A    between atoms: _222  and  _224
REMARK   96  A    between atoms: _224  and  _225
REMARK   97  A    between atoms: _224  and  _227
REMARK   98  A    between atoms: _231  and  _233
REMARK   99  A    between atoms: _233  and  _234
REMARK  100  A    between atoms: _233  and  _236
REMARK  101  A    between atoms: _236  and  _237
REMARK  102  A    between atoms: _243  and  _245
REMARK  103  A    between atoms: _245  and  _246
REMARK  104  A    between atoms: _245  and  _248
REMARK  105  A    between atoms: _248  and  _249
REMARK  106  A    between atoms: _249  and  _250
REMARK  107  A    between atoms: _255  and  _257
REMARK  108  A    between atoms: _257  and  _258
REMARK  109  A    between atoms: _257  and  _260
REMARK  110  A    between atoms: _260  and  _261
REMARK                            x       y       z     vdW  Elec       q    Type
REMARK                         _______ _______ _______ _____ _____    ______ ____
ROOT
ATOM      1  O   HOH     1      30.744  47.498   6.571  0.00  0.00    +0.000 OA
ENDROOT
TORSDOF 0
REMARK  Name = ../refined-set-2016/3djo/3djo_pocket.pdb
REMARK  110 active torsions:
REMARK  status: ('A' for Active; 'I' for Inactive)
REMARK    1  A    between atoms: _1  and  _3
REMARK    2  A    between atoms: _3  and  _4
REMARK    3  A    between atoms: _3  and  _6
REMARK    4  A    between atoms: _6  and  _7
REMARK    5  A    between atoms: _7  and  _8
REMARK    6  A    between atoms: _10  and  _12
REMARK    7  A    between atoms: _12  and  _13
REMARK    8  A    between atoms: _12  and  _15
REMARK    9  A    between atoms: _15  and  _16
REMARK   10  A    between atoms: _16  and  _17
REMARK   11  A    between atoms: _19  and  _21
REMARK   12  A    between atoms: _21  and  _22
REMARK   13  A    between atoms: _21  and  _24
REMARK   14  A    between atoms: _24  and  _25
REMARK   15  A    between atoms: _25  and  _26
REMARK   16  A    between atoms: _26  and  _27
REMARK   17  A    between atoms: _27  and  _28
REMARK   18  A    between atoms: _33  and  _34
REMARK   19  A    between atoms: _39  and  _41
REMARK   20  A    between atoms: _41  and  _42
REMARK   21  A    between atoms: _41  and  _44
REMARK   22  A    between atoms: _47  and  _49
REMARK   23  A    between atoms: _49  and  _50
REMARK   24  A    between atoms: _49  and  _52
REMARK   25  A    between atoms: _52  and  _53
REMARK   26  A    between atoms: _58  and  _60
REMARK   27  A    between atoms: _60  and  _61
REMARK   28  A    between atoms: _60  and  _63
REMARK   29  A    between atoms: _63  and  _64
REMARK   30  A    between atoms: _67  and  _69
REMARK   31  A    between atoms: _69  and  _70
REMARK   32  A    between atoms: _69  and  _72
REMARK   33  A    between atoms: _72  and  _73
REMARK   34  A    between atoms: _79  and  _81
REMARK   35  A    between atoms: _81  and  _82
REMARK   36  A    between atoms: _81  and  _84
REMARK   37  A    between atoms: _84  and  _85
REMARK   38  A    between atoms: _85  and  _86
REMARK   39  A    between atoms: _86  and  _87
REMARK   40  A    between atoms: _87  and  _88
REMARK   41  A    between atoms: _92  and  _94
REMARK   42  A    between atoms: _94  and  _95
REMARK   43  A    between atoms: _94  and  _97
REMARK   44  A    between atoms: _97  and  _98
REMARK   45  A    between atoms: _103  and  _105
REMARK   46  A    between atoms: _105  and  _106
REMARK   47  A    between atoms: _105  and  _108
REMARK   48  A    between atoms: _108  and  _109
REMARK   49  A    between atoms: _112  and  _114
REMARK   50  A    between atoms: _114  and  _115
REMARK   51  A    between atoms: _114  and  _117
REMARK   52  A    between atoms: _117  and  _118
REMARK   53  A    between atoms: _121  and  _123
REMARK   54  A    between atoms: _123  and  _124
REMARK   55  A    between atoms: _123  and  _126
REMARK   56  A    between atoms: _126  and  _127
REMARK   57  A    between atoms: _130  and  _132
REMARK   58  A    between atoms: _132  and  _133
REMARK   59  A    between atoms: _132  and  _135
REMARK   60  A    between atoms: _137  and  _139
REMARK   61  A    between atoms: _139  and  _140
REMARK   62  A    between atoms: _139  and  _142
REMARK   63  A    between atoms: _142  and  _143
REMARK   64  A    between atoms: _143  and  _144
REMARK   65  A    between atoms: _144  and  _145
REMARK   66  A    between atoms: _154  and  _156
REMARK   67  A    between atoms: _156  and  _157
REMARK   68  A    between atoms: _156  and  _159
REMARK   69  A    between atoms: _159  and  _160
REMARK   70  A    between atoms: _160  and  _161
REMARK   71  A    between atoms: _161  and  _162
REMARK   72  A    between atoms: _162  and  _163
REMARK   73  A    between atoms: _167  and  _169
REMARK   74  A    between atoms: _169  and  _170
REMARK   75  A    between atoms: _169  and  _172
REMARK   76  A    between atoms: _172  and  _173
REMARK   77  A    between atoms: _176  and  _178
REMARK   78  A    between atoms: _178  and  _179
REMARK   79  A    between atoms: _178  and  _181
REMARK   80  A    between atoms: _181  and  _182
REMARK   81  A    between atoms: _187  and  _189
REMARK   82  A    between atoms: _189  and  _190
REMARK   83  A    between atoms: _189  and  _192
REMARK   84  A    between atoms: _192  and  _193
REMARK   85  A    between atoms: _199  and  _201
REMARK   86  A    between atoms: _201  and  _202
REMARK   87  A    between atoms: _201  and  _204
REMARK   88  A    between atoms: _204  and  _205
REMARK   89  A    between atoms: _208  and  _210
REMARK   90  A    between atoms: _210  and  _211
REMARK   91  A    between atoms: _214  and  _216
REMARK   92  A    between atoms: _216  and  _217
REMARK   93  A    between atoms: _216  and  _219
REMARK   94  A    between atoms: _219  and  _220
REMARK   95  A    between atoms: _222  and  _224
REMARK   96  A    between atoms: _224  and  _225
REMARK   97  A    between atoms: _224  and  _227
REMARK   98  A    between atoms: _231  and  _233
REMARK   99  A    between atoms: _233  and  _234
REMARK  100  A    between atoms: _233  and  _236
REMARK  101  A    between atoms: _236  and  _237
REMARK  102  A    between atoms: _243  and  _245
REMARK  103  A    between atoms: _245  and  _246
REMARK  104  A    between atoms: _245  and  _248
REMARK  105  A    between atoms: _248  and  _249
REMARK  106  A    between atoms: _249  and  _250
REMARK  107  A    between atoms: _255  and  _257
REMARK  108  A    between atoms: _257  and  _258
REMARK  109  A    between atoms: _257  and  _260
REMARK  110  A    between atoms: _260  and  _261
REMARK                            x       y       z     vdW  Elec       q    Type
REMARK                         _______ _______ _______ _____ _____    ______ ____
ROOT
ATOM      1  O   HOH     1      32.267  49.647   5.178  0.00  0.00    +0.000 OA
ENDROOT
TORSDOF 0
REMARK  Name = ../refined-set-2016/3djo/3djo_pocket.pdb
REMARK  110 active torsions:
REMARK  status: ('A' for Active; 'I' for Inactive)
REMARK    1  A    between atoms: _1  and  _3
REMARK    2  A    between atoms: _3  and  _4
REMARK    3  A    between atoms: _3  and  _6
REMARK    4  A    between atoms: _6  and  _7
REMARK    5  A    between atoms: _7  and  _8
REMARK    6  A    between atoms: _10  and  _12
REMARK    7  A    between atoms: _12  and  _13
REMARK    8  A    between atoms: _12  and  _15
REMARK    9  A    between atoms: _15  and  _16
REMARK   10  A    between atoms: _16  and  _17
REMARK   11  A    between atoms: _19  and  _21
REMARK   12  A    between atoms: _21  and  _22
REMARK   13  A    between atoms: _21  and  _24
REMARK   14  A    between atoms: _24  and  _25
REMARK   15  A    between atoms: _25  and  _26
REMARK   16  A    between atoms: _26  and  _27
REMARK   17  A    between atoms: _27  and  _28
REMARK   18  A    between atoms: _33  and  _34
REMARK   19  A    between atoms: _39  and  _41
REMARK   20  A    between atoms: _41  and  _42
REMARK   21  A    between atoms: _41  and  _44
REMARK   22  A    between atoms: _47  and  _49
REMARK   23  A    between atoms: _49  and  _50
REMARK   24  A    between atoms: _49  and  _52
REMARK   25  A    between atoms: _52  and  _53
REMARK   26  A    between atoms: _58  and  _60
REMARK   27  A    between atoms: _60  and  _61
REMARK   28  A    between atoms: _60  and  _63
REMARK   29  A    between atoms: _63  and  _64
REMARK   30  A    between atoms: _67  and  _69
REMARK   31  A    between atoms: _69  and  _70
REMARK   32  A    between atoms: _69  and  _72
REMARK   33  A    between atoms: _72  and  _73
REMARK   34  A    between atoms: _79  and  _81
REMARK   35  A    between atoms: _81  and  _82
REMARK   36  A    between atoms: _81  and  _84
REMARK   37  A    between atoms: _84  and  _85
REMARK   38  A    between atoms: _85  and  _86
REMARK   39  A    between atoms: _86  and  _87
REMARK   40  A    between atoms: _87  and  _88
REMARK   41  A    between atoms: _92  and  _94
REMARK   42  A    between atoms: _94  and  _95
REMARK   43  A    between atoms: _94  and  _97
REMARK   44  A    between atoms: _97  and  _98
REMARK   45  A    between atoms: _103  and  _105
REMARK   46  A    between atoms: _105  and  _106
REMARK   47  A    between atoms: _105  and  _108
REMARK   48  A    between atoms: _108  and  _109
REMARK   49  A    between atoms: _112  and  _114
REMARK   50  A    between atoms: _114  and  _115
REMARK   51  A    between atoms: _114  and  _117
REMARK   52  A    between atoms: _117  and  _118
REMARK   53  A    between atoms: _121  and  _123
REMARK   54  A    between atoms: _123  and  _124
REMARK   55  A    between atoms: _123  and  _126
REMARK   56  A    between atoms: _126  and  _127
REMARK   57  A    between atoms: _130  and  _132
REMARK   58  A    between atoms: _132  and  _133
REMARK   59  A    between atoms: _132  and  _135
REMARK   60  A    between atoms: _137  and  _139
REMARK   61  A    between atoms: _139  and  _140
REMARK   62  A    between atoms: _139  and  _142
REMARK   63  A    between atoms: _142  and  _143
REMARK   64  A    between atoms: _143  and  _144
REMARK   65  A    between atoms: _144  and  _145
REMARK   66  A    between atoms: _154  and  _156
REMARK   67  A    between atoms: _156  and  _157
REMARK   68  A    between atoms: _156  and  _159
REMARK   69  A    between atoms: _159  and  _160
REMARK   70  A    between atoms: _160  and  _161
REMARK   71  A    between atoms: _161  and  _162
REMARK   72  A    between atoms: _162  and  _163
REMARK   73  A    between atoms: _167  and  _169
REMARK   74  A    between atoms: _169  and  _170
REMARK   75  A    between atoms: _169  and  _172
REMARK   76  A    between atoms: _172  and  _173
REMARK   77  A    between atoms: _176  and  _178
REMARK   78  A    between atoms: _178  and  _179
REMARK   79  A    between atoms: _178  and  _181
REMARK   80  A    between atoms: _181  and  _182
REMARK   81  A    between atoms: _187  and  _189
REMARK   82  A    between atoms: _189  and  _190
REMARK   83  A    between atoms: _189  and  _192
REMARK   84  A    between atoms: _192  and  _193
REMARK   85  A    between atoms: _199  and  _201
REMARK   86  A    between atoms: _201  and  _202
REMARK   87  A    between atoms: _201  and  _204
REMARK   88  A    between atoms: _204  and  _205
REMARK   89  A    between atoms: _208  and  _210
REMARK   90  A    between atoms: _210  and  _211
REMARK   91  A    between atoms: _214  and  _216
REMARK   92  A    between atoms: _216  and  _217
REMARK   93  A    between atoms: _216  and  _219
REMARK   94  A    between atoms: _219  and  _220
REMARK   95  A    between atoms: _222  and  _224
REMARK   96  A    between atoms: _224  and  _225
REMARK   97  A    between atoms: _224  and  _227
REMARK   98  A    between atoms: _231  and  _233
REMARK   99  A    between atoms: _233  and  _234
REMARK  100  A    between atoms: _233  and  _236
REMARK  101  A    between atoms: _236  and  _237
REMARK  102  A    between atoms: _243  and  _245
REMARK  103  A    between atoms: _245  and  _246
REMARK  104  A    between atoms: _245  and  _248
REMARK  105  A    between atoms: _248  and  _249
REMARK  106  A    between atoms: _249  and  _250
REMARK  107  A    between atoms: _255  and  _257
REMARK  108  A    between atoms: _257  and  _258
REMARK  109  A    between atoms: _257  and  _260
REMARK  110  A    between atoms: _260  and  _261
REMARK                            x       y       z     vdW  Elec       q    Type
REMARK                         _______ _______ _______ _____ _____    ______ ____
ROOT
ATOM      1  O   HOH     1      35.127  33.490  10.233  0.00  0.00    +0.000 OA
ENDROOT
TORSDOF 0
