REMARK  Name = ../refined-set-2016/3fcq/3fcq_pocket.pdb
REMARK  148 active torsions:
REMARK  status: ('A' for Active; 'I' for Inactive)
REMARK    1  A    between atoms: _1  and  _3
REMARK    2  A    between atoms: _3  and  _4
REMARK    3  A    between atoms: _3  and  _6
REMARK    4  A    between atoms: _6  and  _7
REMARK    5  A    between atoms: _12  and  _13
REMARK    6  A    between atoms: _15  and  _17
REMARK    7  A    between atoms: _17  and  _18
REMARK    8  A    between atoms: _17  and  _20
REMARK    9  A    between atoms: _20  and  _21
REMARK   10  A    between atoms: _26  and  _28
REMARK   11  A    between atoms: _28  and  _29
REMARK   12  A    between atoms: _28  and  _31
REMARK   13  A    between atoms: _31  and  _32
REMARK   14  A    between atoms: _37  and  _39
REMARK   15  A    between atoms: _39  and  _40
REMARK   16  A    between atoms: _43  and  _45
REMARK   17  A    between atoms: _45  and  _46
REMARK   18  A    between atoms: _45  and  _48
REMARK   19  A    between atoms: _48  and  _49
REMARK   20  A    between atoms: _55  and  _57
REMARK   21  A    between atoms: _57  and  _58
REMARK   22  A    between atoms: _57  and  _60
REMARK   23  A    between atoms: _60  and  _61
REMARK   24  A    between atoms: _71  and  _73
REMARK   25  A    between atoms: _73  and  _74
REMARK   26  A    between atoms: _73  and  _76
REMARK   27  A    between atoms: _76  and  _77
REMARK   28  A    between atoms: _77  and  _78
REMARK   29  A    between atoms: _80  and  _82
REMARK   30  A    between atoms: _82  and  _83
REMARK   31  A    between atoms: _82  and  _85
REMARK   32  A    between atoms: _88  and  _90
REMARK   33  A    between atoms: _90  and  _91
REMARK   34  A    between atoms: _90  and  _93
REMARK   35  A    between atoms: _93  and  _94
REMARK   36  A    between atoms: _99  and  _100
REMARK   37  A    between atoms: _102  and  _104
REMARK   38  A    between atoms: _104  and  _105
REMARK   39  A    between atoms: _107  and  _109
REMARK   40  A    between atoms: _109  and  _110
REMARK   41  A    between atoms: _109  and  _112
REMARK   42  A    between atoms: _112  and  _113
REMARK   43  A    between atoms: _116  and  _118
REMARK   44  A    between atoms: _118  and  _119
REMARK   45  A    between atoms: _118  and  _121
REMARK   46  A    between atoms: _121  and  _122
REMARK   47  A    between atoms: _128  and  _130
REMARK   48  A    between atoms: _130  and  _131
REMARK   49  A    between atoms: _130  and  _133
REMARK   50  A    between atoms: _133  and  _134
REMARK   51  A    between atoms: _137  and  _139
REMARK   52  A    between atoms: _139  and  _140
REMARK   53  A    between atoms: _142  and  _144
REMARK   54  A    between atoms: _144  and  _145
REMARK   55  A    between atoms: _144  and  _147
REMARK   56  A    between atoms: _147  and  _148
REMARK   57  A    between atoms: _151  and  _153
REMARK   58  A    between atoms: _153  and  _154
REMARK   59  A    between atoms: _153  and  _156
REMARK   60  A    between atoms: _159  and  _161
REMARK   61  A    between atoms: _161  and  _162
REMARK   62  A    between atoms: _161  and  _164
REMARK   63  A    between atoms: _167  and  _169
REMARK   64  A    between atoms: _169  and  _170
REMARK   65  A    between atoms: _173  and  _175
REMARK   66  A    between atoms: _175  and  _176
REMARK   67  A    between atoms: _175  and  _178
REMARK   68  A    between atoms: _178  and  _179
REMARK   69  A    between atoms: _183  and  ZN_369
REMARK   70  A    between atoms: _184  and  _186
REMARK   71  A    between atoms: _186  and  _187
REMARK   72  A    between atoms: _186  and  _189
REMARK   73  A    between atoms: _189  and  _190
REMARK   74  A    between atoms: _190  and  _191
REMARK   75  A    between atoms: _194  and  _196
REMARK   76  A    between atoms: _196  and  _197
REMARK   77  A    between atoms: _196  and  _199
REMARK   78  A    between atoms: _199  and  _200
REMARK   79  A    between atoms: _203  and  _205
REMARK   80  A    between atoms: _205  and  _206
REMARK   81  A    between atoms: _205  and  _208
REMARK   82  A    between atoms: _208  and  _209
REMARK   83  A    between atoms: _213  and  ZN_369
REMARK   84  A    between atoms: _214  and  _216
REMARK   85  A    between atoms: _216  and  _217
REMARK   86  A    between atoms: _216  and  _219
REMARK   87  A    between atoms: _219  and  _220
REMARK   88  A    between atoms: _225  and  _226
REMARK   89  A    between atoms: _228  and  _230
REMARK   90  A    between atoms: _230  and  _231
REMARK   91  A    between atoms: _230  and  _233
REMARK   92  A    between atoms: _233  and  _234
REMARK   93  A    between atoms: _239  and  _241
REMARK   94  A    between atoms: _241  and  _242
REMARK   95  A    between atoms: _241  and  _244
REMARK   96  A    between atoms: _244  and  _245
REMARK   97  A    between atoms: _245  and  _246
REMARK   98  A    between atoms: _246  and  _248
REMARK   99  A    between atoms: _248  and  ZN_369
REMARK  100  A    between atoms: _249  and  _251
REMARK  101  A    between atoms: _251  and  _252
REMARK  102  A    between atoms: _251  and  _254
REMARK  103  A    between atoms: _254  and  _255
REMARK  104  A    between atoms: _257  and  _259
REMARK  105  A    between atoms: _259  and  _260
REMARK  106  A    between atoms: _259  and  _262
REMARK  107  A    between atoms: _262  and  _263
REMARK  108  A    between atoms: _266  and  _268
REMARK  109  A    between atoms: _268  and  _269
REMARK  110  A    between atoms: _271  and  _273
REMARK  111  A    between atoms: _273  and  _274
REMARK  112  A    between atoms: _273  and  _276
REMARK  113  A    between atoms: _276  and  _277
REMARK  114  A    between atoms: _280  and  _282
REMARK  115  A    between atoms: _282  and  _283
REMARK  116  A    between atoms: _285  and  _287
REMARK  117  A    between atoms: _287  and  _288
REMARK  118  A    between atoms: _287  and  _290
REMARK  119  A    between atoms: _293  and  _295
REMARK  120  A    between atoms: _295  and  _296
REMARK  121  A    between atoms: _295  and  _298
REMARK  122  A    between atoms: _298  and  _299
REMARK  123  A    between atoms: _304  and  _305
REMARK  124  A    between atoms: _307  and  _309
REMARK  125  A    between atoms: _309  and  _310
REMARK  126  A    between atoms: _309  and  _312
REMARK  127  A    between atoms: _312  and  _313
REMARK  128  A    between atoms: _316  and  _318
REMARK  129  A    between atoms: _318  and  _319
REMARK  130  A    between atoms: _318  and  _321
REMARK  131  A    between atoms: _321  and  _322
REMARK  132  A    between atoms: _322  and  _323
REMARK  133  A    between atoms: _323  and  _324
REMARK  134  A    between atoms: _333  and  _335
REMARK  135  A    between atoms: _335  and  _336
REMARK  136  A    between atoms: _335  and  _338
REMARK  137  A    between atoms: _338  and  _339
REMARK  138  A    between atoms: _342  and  _344
REMARK  139  A    between atoms: _344  and  _345
REMARK  140  A    between atoms: _344  and  _347
REMARK  141  A    between atoms: _350  and  _352
REMARK  142  A    between atoms: _352  and  _353
REMARK  143  A    between atoms: _352  and  _355
REMARK  144  A    between atoms: _355  and  _356
REMARK  145  A    between atoms: _361  and  _363
REMARK  146  A    between atoms: _363  and  _364
REMARK  147  A    between atoms: _363  and  _366
REMARK  148  A    between atoms: _366  and  _367
REMARK                            x       y       z     vdW  Elec       q    Type
REMARK                         _______ _______ _______ _____ _____    ______ ____
ROOT
ATOM      1  C   ASN A   3      31.907  38.250  -0.923  0.00  0.00    +0.241 C 
ATOM      2  O   ASN A   3      30.900  38.106  -0.225  0.00  0.00    -0.273 OA
ATOM      3  N   ALA A   4      32.176  39.327  -1.646  0.00  0.00    -0.297 N 
ATOM      4  H   ALA A   4      33.120  39.408  -2.075  0.00  0.00    +0.150 HD
ENDROOT
BRANCH   3   5
ATOM      5  CA  ALA A   4      31.218  40.408  -1.873  0.00  0.00    +0.149 C 
ATOM      6  CB  ALA A   4      31.415  41.577  -0.937  0.00  0.00    +0.031 C 
BRANCH   5   7
ATOM      7  C   ALA A   4      31.349  40.839  -3.333  0.00  0.00    +0.241 C 
ATOM      8  O   ALA A   4      32.433  40.675  -3.912  0.00  0.00    -0.273 OA
ATOM      9  N   PHE A   5      30.287  41.356  -3.943  0.00  0.00    -0.297 N 
ATOM     10  H   PHE A   5      29.401  41.515  -3.422  0.00  0.00    +0.150 HD
BRANCH   9  11
ATOM     11  CA  PHE A   5      30.391  41.698  -5.365  0.00  0.00    +0.153 C 
BRANCH  11  12
ATOM     12  C   PHE A   5      29.298  42.672  -5.792  0.00  0.00    +0.241 C 
ATOM     13  O   PHE A   5      28.322  42.950  -5.090  0.00  0.00    -0.273 OA
ATOM     14  N   TRP A   6      29.478  43.201  -6.995  0.00  0.00    -0.298 N 
ATOM     15  H   TRP A   6      30.394  43.043  -7.461  0.00  0.00    +0.150 HD
BRANCH  14  16
ATOM     16  CA  TRP A   6      28.477  43.992  -7.713  0.00  0.00    +0.141 C 
BRANCH  16  17
ATOM     17  C   TRP A   6      27.991  43.148  -8.896  0.00  0.00    +0.227 C 
ATOM     18  O   TRP A   6      28.834  42.720  -9.696  0.00  0.00    -0.286 OA
ENDBRANCH  16  17
BRANCH  16  19
ATOM     19  CB  TRP A   6      29.074  45.319  -8.183  0.00  0.00    +0.056 C 
BRANCH  19  20
ATOM     20  CG  TRP A   6      28.221  46.051  -9.175  0.00  0.00    -0.002 A 
ATOM     21  CD2 TRP A   6      27.155  46.951  -8.840  0.00  0.00    +0.013 A 
ATOM     22  CE3 TRP A   6      26.637  47.388  -7.618  0.00  0.00    +0.001 A 
ATOM     23  CZ3 TRP A   6      25.581  48.282  -7.655  0.00  0.00    +0.000 A 
ATOM     24  CH2 TRP A   6      25.054  48.736  -8.867  0.00  0.00    +0.001 A 
ATOM     25  CZ2 TRP A   6      25.542  48.332 -10.081  0.00  0.00    +0.017 A 
ATOM     26  CE2 TRP A   6      26.609  47.425 -10.042  0.00  0.00    +0.056 A 
ATOM     27  NE1 TRP A   6      27.301  46.846 -11.083  0.00  0.00    -0.352 N 
ATOM     28  HE1 TRP A   6      27.127  47.001 -12.097  0.00  0.00    +0.166 HD
ATOM     29  CD1 TRP A   6      28.270  46.020 -10.538  0.00  0.00    +0.068 A 
ENDBRANCH  19  20
ENDBRANCH  16  19
ENDBRANCH  14  16
ENDBRANCH  11  12
BRANCH  11  30
ATOM     30  CB  PHE A   5      30.346  40.412  -6.184  0.00  0.00    +0.055 C 
BRANCH  30  31
ATOM     31  CG  PHE A   5      29.127  39.522  -6.067  0.00  0.00    -0.020 A 
ATOM     32  CD2 PHE A   5      29.004  38.584  -5.048  0.00  0.00    -0.004 A 
ATOM     33  CE2 PHE A   5      27.897  37.749  -4.962  0.00  0.00    -0.000 A 
ATOM     34  CZ  PHE A   5      26.888  37.862  -5.900  0.00  0.00    -0.000 A 
ATOM     35  CE1 PHE A   5      26.999  38.798  -6.916  0.00  0.00    -0.000 A 
ATOM     36  CD1 PHE A   5      28.108  39.618  -7.004  0.00  0.00    -0.004 A 
ENDBRANCH  30  31
ENDBRANCH  11  30
ENDBRANCH   9  11
ENDBRANCH   5   7
ENDBRANCH   3   5
BRANCH   1  37
ATOM     37  CA  ASN A   3      32.932  37.123  -1.039  0.00  0.00    +0.158 C 
BRANCH  37  40
ATOM     38  C   ASN A   2      33.742  35.513   0.559  0.00  0.00    +0.241 C 
ATOM     39  O   ASN A   2      34.899  35.826   0.279  0.00  0.00    -0.273 OA
ATOM     40  N   ASN A   3      32.702  36.089  -0.039  0.00  0.00    -0.297 N 
ATOM     41  H   ASN A   3      31.732  35.803   0.206  0.00  0.00    +0.150 HD
BRANCH  38  42
ATOM     42  CA  ASN A   2      33.517  34.440   1.605  0.00  0.00    +0.158 C 
BRANCH  42  45
ATOM     43  C   TYR A   1      31.149  33.881   1.717  0.00  0.00    +0.239 C 
ATOM     44  O   TYR A   1      30.860  34.945   2.269  0.00  0.00    -0.274 OA
ATOM     45  N   ASN A   2      32.380  33.586   1.308  0.00  0.00    -0.297 N 
ATOM     46  H   ASN A   2      32.533  32.717   0.758  0.00  0.00    +0.150 HD
BRANCH  43  47
ATOM     47  CA  TYR A   1      30.043  32.857   1.527  0.00  0.00    +0.149 C 
BRANCH  47  48
ATOM     48  N   TYR A   1      29.520  32.354   2.794  0.00  0.00    -0.238 NA
ATOM     49  H   TYR A   1      28.644  32.764   3.177  0.00  0.00    +0.142 HD
ENDBRANCH  47  48
BRANCH  47  50
ATOM     50  CB  TYR A   1      28.866  33.481   0.777  0.00  0.00    +0.053 C 
BRANCH  50  51
ATOM     51  CG  TYR A   1      29.145  33.796  -0.680  0.00  0.00    -0.020 A 
ATOM     52  CD2 TYR A   1      29.238  35.119  -1.086  0.00  0.00    -0.001 A 
ATOM     53  CE2 TYR A   1      29.495  35.428  -2.401  0.00  0.00    +0.036 A 
ATOM     54  CZ  TYR A   1      29.650  34.402  -3.311  0.00  0.00    +0.134 A 
ATOM     55  CE1 TYR A   1      29.553  33.080  -2.938  0.00  0.00    +0.036 A 
ATOM     56  CD1 TYR A   1      29.301  32.777  -1.611  0.00  0.00    -0.001 A 
BRANCH  54  57
ATOM     57  OH  TYR A   1      29.903  34.725  -4.630  0.00  0.00    -0.506 OA
ATOM     58  HH  TYR A   1      29.990  33.894  -5.161  0.00  0.00    +0.292 HD
ENDBRANCH  54  57
ENDBRANCH  50  51
ENDBRANCH  47  50
ENDBRANCH  43  47
ENDBRANCH  42  45
BRANCH  42  59
ATOM     59  CB  ASN A   2      34.814  33.601   1.709  0.00  0.00    +0.114 C 
BRANCH  59  60
ATOM     60  CG  ASN A   2      34.840  32.805   2.997  0.00  0.00    +0.222 C 
ATOM     61  OD1 ASN A   2      34.526  33.302   4.086  0.00  0.00    -0.275 OA
ATOM     62  ND2 ASN A   2      35.225  31.535   2.898  0.00  0.00    -0.329 N 
ATOM     63 HD21 ASN A   2      35.267  30.937   3.748  0.00  0.00    +0.145 HD
ATOM     64 HD22 ASN A   2      35.484  31.141   1.971  0.00  0.00    +0.145 HD
ENDBRANCH  59  60
ENDBRANCH  42  59
ENDBRANCH  38  42
ENDBRANCH  37  40
BRANCH  37  65
ATOM     65  CB  ASN A   3      32.811  36.564  -2.455  0.00  0.00    +0.114 C 
BRANCH  65  66
ATOM     66  CG  ASN A   3      33.615  35.312  -2.730  0.00  0.00    +0.222 C 
ATOM     67  ND2 ASN A   3      32.962  34.153  -2.704  0.00  0.00    -0.329 N 
ATOM     68 HD21 ASN A   3      31.942  34.135  -2.501  0.00  0.00    +0.145 HD
ATOM     69 HD22 ASN A   3      33.472  33.265  -2.886  0.00  0.00    +0.145 HD
ATOM     70  OD1 ASN A   3      34.822  35.397  -2.964  0.00  0.00    -0.275 OA
ENDBRANCH  65  66
ENDBRANCH  37  65
ENDBRANCH   1  37
TORSDOF 23
REMARK  Name = ../refined-set-2016/3fcq/3fcq_pocket.pdb
REMARK  148 active torsions:
REMARK  status: ('A' for Active; 'I' for Inactive)
REMARK    1  A    between atoms: _1  and  _3
REMARK    2  A    between atoms: _3  and  _4
REMARK    3  A    between atoms: _3  and  _6
REMARK    4  A    between atoms: _6  and  _7
REMARK    5  A    between atoms: _12  and  _13
REMARK    6  A    between atoms: _15  and  _17
REMARK    7  A    between atoms: _17  and  _18
REMARK    8  A    between atoms: _17  and  _20
REMARK    9  A    between atoms: _20  and  _21
REMARK   10  A    between atoms: _26  and  _28
REMARK   11  A    between atoms: _28  and  _29
REMARK   12  A    between atoms: _28  and  _31
REMARK   13  A    between atoms: _31  and  _32
REMARK   14  A    between atoms: _37  and  _39
REMARK   15  A    between atoms: _39  and  _40
REMARK   16  A    between atoms: _43  and  _45
REMARK   17  A    between atoms: _45  and  _46
REMARK   18  A    between atoms: _45  and  _48
REMARK   19  A    between atoms: _48  and  _49
REMARK   20  A    between atoms: _55  and  _57
REMARK   21  A    between atoms: _57  and  _58
REMARK   22  A    between atoms: _57  and  _60
REMARK   23  A    between atoms: _60  and  _61
REMARK   24  A    between atoms: _71  and  _73
REMARK   25  A    between atoms: _73  and  _74
REMARK   26  A    between atoms: _73  and  _76
REMARK   27  A    between atoms: _76  and  _77
REMARK   28  A    between atoms: _77  and  _78
REMARK   29  A    between atoms: _80  and  _82
REMARK   30  A    between atoms: _82  and  _83
REMARK   31  A    between atoms: _82  and  _85
REMARK   32  A    between atoms: _88  and  _90
REMARK   33  A    between atoms: _90  and  _91
REMARK   34  A    between atoms: _90  and  _93
REMARK   35  A    between atoms: _93  and  _94
REMARK   36  A    between atoms: _99  and  _100
REMARK   37  A    between atoms: _102  and  _104
REMARK   38  A    between atoms: _104  and  _105
REMARK   39  A    between atoms: _107  and  _109
REMARK   40  A    between atoms: _109  and  _110
REMARK   41  A    between atoms: _109  and  _112
REMARK   42  A    between atoms: _112  and  _113
REMARK   43  A    between atoms: _116  and  _118
REMARK   44  A    between atoms: _118  and  _119
REMARK   45  A    between atoms: _118  and  _121
REMARK   46  A    between atoms: _121  and  _122
REMARK   47  A    between atoms: _128  and  _130
REMARK   48  A    between atoms: _130  and  _131
REMARK   49  A    between atoms: _130  and  _133
REMARK   50  A    between atoms: _133  and  _134
REMARK   51  A    between atoms: _137  and  _139
REMARK   52  A    between atoms: _139  and  _140
REMARK   53  A    between atoms: _142  and  _144
REMARK   54  A    between atoms: _144  and  _145
REMARK   55  A    between atoms: _144  and  _147
REMARK   56  A    between atoms: _147  and  _148
REMARK   57  A    between atoms: _151  and  _153
REMARK   58  A    between atoms: _153  and  _154
REMARK   59  A    between atoms: _153  and  _156
REMARK   60  A    between atoms: _159  and  _161
REMARK   61  A    between atoms: _161  and  _162
REMARK   62  A    between atoms: _161  and  _164
REMARK   63  A    between atoms: _167  and  _169
REMARK   64  A    between atoms: _169  and  _170
REMARK   65  A    between atoms: _173  and  _175
REMARK   66  A    between atoms: _175  and  _176
REMARK   67  A    between atoms: _175  and  _178
REMARK   68  A    between atoms: _178  and  _179
REMARK   69  A    between atoms: _183  and  ZN_369
REMARK   70  A    between atoms: _184  and  _186
REMARK   71  A    between atoms: _186  and  _187
REMARK   72  A    between atoms: _186  and  _189
REMARK   73  A    between atoms: _189  and  _190
REMARK   74  A    between atoms: _190  and  _191
REMARK   75  A    between atoms: _194  and  _196
REMARK   76  A    between atoms: _196  and  _197
REMARK   77  A    between atoms: _196  and  _199
REMARK   78  A    between atoms: _199  and  _200
REMARK   79  A    between atoms: _203  and  _205
REMARK   80  A    between atoms: _205  and  _206
REMARK   81  A    between atoms: _205  and  _208
REMARK   82  A    between atoms: _208  and  _209
REMARK   83  A    between atoms: _213  and  ZN_369
REMARK   84  A    between atoms: _214  and  _216
REMARK   85  A    between atoms: _216  and  _217
REMARK   86  A    between atoms: _216  and  _219
REMARK   87  A    between atoms: _219  and  _220
REMARK   88  A    between atoms: _225  and  _226
REMARK   89  A    between atoms: _228  and  _230
REMARK   90  A    between atoms: _230  and  _231
REMARK   91  A    between atoms: _230  and  _233
REMARK   92  A    between atoms: _233  and  _234
REMARK   93  A    between atoms: _239  and  _241
REMARK   94  A    between atoms: _241  and  _242
REMARK   95  A    between atoms: _241  and  _244
REMARK   96  A    between atoms: _244  and  _245
REMARK   97  A    between atoms: _245  and  _246
REMARK   98  A    between atoms: _246  and  _248
REMARK   99  A    between atoms: _248  and  ZN_369
REMARK  100  A    between atoms: _249  and  _251
REMARK  101  A    between atoms: _251  and  _252
REMARK  102  A    between atoms: _251  and  _254
REMARK  103  A    between atoms: _254  and  _255
REMARK  104  A    between atoms: _257  and  _259
REMARK  105  A    between atoms: _259  and  _260
REMARK  106  A    between atoms: _259  and  _262
REMARK  107  A    between atoms: _262  and  _263
REMARK  108  A    between atoms: _266  and  _268
REMARK  109  A    between atoms: _268  and  _269
REMARK  110  A    between atoms: _271  and  _273
REMARK  111  A    between atoms: _273  and  _274
REMARK  112  A    between atoms: _273  and  _276
REMARK  113  A    between atoms: _276  and  _277
REMARK  114  A    between atoms: _280  and  _282
REMARK  115  A    between atoms: _282  and  _283
REMARK  116  A    between atoms: _285  and  _287
REMARK  117  A    between atoms: _287  and  _288
REMARK  118  A    between atoms: _287  and  _290
REMARK  119  A    between atoms: _293  and  _295
REMARK  120  A    between atoms: _295  and  _296
REMARK  121  A    between atoms: _295  and  _298
REMARK  122  A    between atoms: _298  and  _299
REMARK  123  A    between atoms: _304  and  _305
REMARK  124  A    between atoms: _307  and  _309
REMARK  125  A    between atoms: _309  and  _310
REMARK  126  A    between atoms: _309  and  _312
REMARK  127  A    between atoms: _312  and  _313
REMARK  128  A    between atoms: _316  and  _318
REMARK  129  A    between atoms: _318  and  _319
REMARK  130  A    between atoms: _318  and  _321
REMARK  131  A    between atoms: _321  and  _322
REMARK  132  A    between atoms: _322  and  _323
REMARK  133  A    between atoms: _323  and  _324
REMARK  134  A    between atoms: _333  and  _335
REMARK  135  A    between atoms: _335  and  _336
REMARK  136  A    between atoms: _335  and  _338
REMARK  137  A    between atoms: _338  and  _339
REMARK  138  A    between atoms: _342  and  _344
REMARK  139  A    between atoms: _344  and  _345
REMARK  140  A    between atoms: _344  and  _347
REMARK  141  A    between atoms: _350  and  _352
REMARK  142  A    between atoms: _352  and  _353
REMARK  143  A    between atoms: _352  and  _355
REMARK  144  A    between atoms: _355  and  _356
REMARK  145  A    between atoms: _361  and  _363
REMARK  146  A    between atoms: _363  and  _364
REMARK  147  A    between atoms: _363  and  _366
REMARK  148  A    between atoms: _366  and  _367
REMARK                            x       y       z     vdW  Elec       q    Type
REMARK                         _______ _______ _______ _____ _____    ______ ____
ROOT
ATOM      1  C   VAL A   2      26.994  41.195  -1.588  0.00  0.00    +0.241 C 
ATOM      2  N   TYR A   3      26.579  40.858  -0.371  0.00  0.00    -0.297 N 
ATOM      3  H   TYR A   3      25.561  40.821  -0.160  0.00  0.00    +0.150 HD
ATOM      4  O   VAL A   2      28.180  41.233  -1.950  0.00  0.00    -0.273 OA
ENDROOT
BRANCH   1   5
ATOM      5  CA  VAL A   2      25.917  41.571  -2.608  0.00  0.00    +0.148 C 
BRANCH   5   8
ATOM      6  C   MET A   1      25.342  43.823  -3.414  0.00  0.00    +0.238 C 
ATOM      7  O   MET A   1      24.155  43.775  -3.072  0.00  0.00    -0.274 OA
ATOM      8  N   VAL A   2      26.233  42.860  -3.208  0.00  0.00    -0.297 N 
ATOM      9  H   VAL A   2      27.217  43.037  -3.493  0.00  0.00    +0.150 HD
BRANCH   6  10
ATOM     10  CA  MET A   1      25.846  45.045  -4.174  0.00  0.00    +0.146 C 
BRANCH  10  11
ATOM     11  N   MET A   1      24.769  45.616  -4.982  0.00  0.00    -0.238 NA
ATOM     12  H   MET A   1      24.146  46.337  -4.564  0.00  0.00    +0.142 HD
ENDBRANCH  10  11
BRANCH  10  13
ATOM     13  CB  MET A   1      26.389  46.097  -3.207  0.00  0.00    +0.038 C 
BRANCH  13  14
ATOM     14  CG  MET A   1      27.084  47.255  -3.938  0.00  0.00    +0.060 C 
BRANCH  14  15
ATOM     15  SD  MET A   1      27.616  48.470  -2.685  0.00  0.00    -0.139 S 
ATOM     16  CE  MET A   1      26.065  49.377  -2.526  0.00  0.00    +0.069 C 
ENDBRANCH  14  15
ENDBRANCH  13  14
ENDBRANCH  10  13
ENDBRANCH   6  10
ENDBRANCH   5   8
BRANCH   5  17
ATOM     17  CB  VAL A   2      25.806  40.450  -3.652  0.00  0.00    +0.027 C 
ATOM     18  CG2 VAL A   2      25.328  39.163  -2.986  0.00  0.00    +0.002 C 
ATOM     19  CG1 VAL A   2      24.829  40.849  -4.748  0.00  0.00    +0.002 C 
ENDBRANCH   5  17
ENDBRANCH   1   5
BRANCH   2  20
ATOM     20  CA  TYR A   3      27.553  40.539   0.671  0.00  0.00    +0.153 C 
BRANCH  20  21
ATOM     21  C   TYR A   3      27.319  39.182   1.321  0.00  0.00    +0.241 C 
ATOM     22  O   TYR A   3      26.233  38.897   1.825  0.00  0.00    -0.273 OA
ATOM     23  N   GLY A   4      28.373  38.362   1.335  0.00  0.00    -0.296 N 
ATOM     24  H   GLY A   4      29.246  38.623   0.834  0.00  0.00    +0.150 HD
BRANCH  23  25
ATOM     25  CA  GLY A   4      28.291  37.092   2.060  0.00  0.00    +0.163 C 
BRANCH  25  26
ATOM     26  C   GLY A   4      28.499  37.350   3.551  0.00  0.00    +0.229 C 
ATOM     27  O   GLY A   4      28.921  38.463   3.880  0.00  0.00    -0.286 OA
ENDBRANCH  25  26
ENDBRANCH  23  25
ENDBRANCH  20  21
BRANCH  20  28
ATOM     28  CB  TYR A   3      27.543  41.591   1.803  0.00  0.00    +0.055 C 
BRANCH  28  29
ATOM     29  CG  TYR A   3      27.840  42.980   1.290  0.00  0.00    -0.020 A 
ATOM     30  CD2 TYR A   3      29.151  43.432   1.175  0.00  0.00    -0.001 A 
ATOM     31  CE2 TYR A   3      29.437  44.707   0.709  0.00  0.00    +0.036 A 
ATOM     32  CZ  TYR A   3      28.376  45.516   0.354  0.00  0.00    +0.134 A 
ATOM     33  CE1 TYR A   3      27.064  45.092   0.451  0.00  0.00    +0.036 A 
ATOM     34  CD1 TYR A   3      26.788  43.823   0.923  0.00  0.00    -0.001 A 
BRANCH  32  35
ATOM     35  OH  TYR A   3      28.597  46.782  -0.132  0.00  0.00    -0.506 OA
ATOM     36  HH  TYR A   3      28.150  47.442   0.455  0.00  0.00    +0.292 HD
ENDBRANCH  32  35
ENDBRANCH  28  29
ENDBRANCH  20  28
ENDBRANCH   2  20
TORSDOF 15
REMARK  Name = ../refined-set-2016/3fcq/3fcq_pocket.pdb
REMARK  148 active torsions:
REMARK  status: ('A' for Active; 'I' for Inactive)
REMARK    1  A    between atoms: _1  and  _3
REMARK    2  A    between atoms: _3  and  _4
REMARK    3  A    between atoms: _3  and  _6
REMARK    4  A    between atoms: _6  and  _7
REMARK    5  A    between atoms: _12  and  _13
REMARK    6  A    between atoms: _15  and  _17
REMARK    7  A    between atoms: _17  and  _18
REMARK    8  A    between atoms: _17  and  _20
REMARK    9  A    between atoms: _20  and  _21
REMARK   10  A    between atoms: _26  and  _28
REMARK   11  A    between atoms: _28  and  _29
REMARK   12  A    between atoms: _28  and  _31
REMARK   13  A    between atoms: _31  and  _32
REMARK   14  A    between atoms: _37  and  _39
REMARK   15  A    between atoms: _39  and  _40
REMARK   16  A    between atoms: _43  and  _45
REMARK   17  A    between atoms: _45  and  _46
REMARK   18  A    between atoms: _45  and  _48
REMARK   19  A    between atoms: _48  and  _49
REMARK   20  A    between atoms: _55  and  _57
REMARK   21  A    between atoms: _57  and  _58
REMARK   22  A    between atoms: _57  and  _60
REMARK   23  A    between atoms: _60  and  _61
REMARK   24  A    between atoms: _71  and  _73
REMARK   25  A    between atoms: _73  and  _74
REMARK   26  A    between atoms: _73  and  _76
REMARK   27  A    between atoms: _76  and  _77
REMARK   28  A    between atoms: _77  and  _78
REMARK   29  A    between atoms: _80  and  _82
REMARK   30  A    between atoms: _82  and  _83
REMARK   31  A    between atoms: _82  and  _85
REMARK   32  A    between atoms: _88  and  _90
REMARK   33  A    between atoms: _90  and  _91
REMARK   34  A    between atoms: _90  and  _93
REMARK   35  A    between atoms: _93  and  _94
REMARK   36  A    between atoms: _99  and  _100
REMARK   37  A    between atoms: _102  and  _104
REMARK   38  A    between atoms: _104  and  _105
REMARK   39  A    between atoms: _107  and  _109
REMARK   40  A    between atoms: _109  and  _110
REMARK   41  A    between atoms: _109  and  _112
REMARK   42  A    between atoms: _112  and  _113
REMARK   43  A    between atoms: _116  and  _118
REMARK   44  A    between atoms: _118  and  _119
REMARK   45  A    between atoms: _118  and  _121
REMARK   46  A    between atoms: _121  and  _122
REMARK   47  A    between atoms: _128  and  _130
REMARK   48  A    between atoms: _130  and  _131
REMARK   49  A    between atoms: _130  and  _133
REMARK   50  A    between atoms: _133  and  _134
REMARK   51  A    between atoms: _137  and  _139
REMARK   52  A    between atoms: _139  and  _140
REMARK   53  A    between atoms: _142  and  _144
REMARK   54  A    between atoms: _144  and  _145
REMARK   55  A    between atoms: _144  and  _147
REMARK   56  A    between atoms: _147  and  _148
REMARK   57  A    between atoms: _151  and  _153
REMARK   58  A    between atoms: _153  and  _154
REMARK   59  A    between atoms: _153  and  _156
REMARK   60  A    between atoms: _159  and  _161
REMARK   61  A    between atoms: _161  and  _162
REMARK   62  A    between atoms: _161  and  _164
REMARK   63  A    between atoms: _167  and  _169
REMARK   64  A    between atoms: _169  and  _170
REMARK   65  A    between atoms: _173  and  _175
REMARK   66  A    between atoms: _175  and  _176
REMARK   67  A    between atoms: _175  and  _178
REMARK   68  A    between atoms: _178  and  _179
REMARK   69  A    between atoms: _183  and  ZN_369
REMARK   70  A    between atoms: _184  and  _186
REMARK   71  A    between atoms: _186  and  _187
REMARK   72  A    between atoms: _186  and  _189
REMARK   73  A    between atoms: _189  and  _190
REMARK   74  A    between atoms: _190  and  _191
REMARK   75  A    between atoms: _194  and  _196
REMARK   76  A    between atoms: _196  and  _197
REMARK   77  A    between atoms: _196  and  _199
REMARK   78  A    between atoms: _199  and  _200
REMARK   79  A    between atoms: _203  and  _205
REMARK   80  A    between atoms: _205  and  _206
REMARK   81  A    between atoms: _205  and  _208
REMARK   82  A    between atoms: _208  and  _209
REMARK   83  A    between atoms: _213  and  ZN_369
REMARK   84  A    between atoms: _214  and  _216
REMARK   85  A    between atoms: _216  and  _217
REMARK   86  A    between atoms: _216  and  _219
REMARK   87  A    between atoms: _219  and  _220
REMARK   88  A    between atoms: _225  and  _226
REMARK   89  A    between atoms: _228  and  _230
REMARK   90  A    between atoms: _230  and  _231
REMARK   91  A    between atoms: _230  and  _233
REMARK   92  A    between atoms: _233  and  _234
REMARK   93  A    between atoms: _239  and  _241
REMARK   94  A    between atoms: _241  and  _242
REMARK   95  A    between atoms: _241  and  _244
REMARK   96  A    between atoms: _244  and  _245
REMARK   97  A    between atoms: _245  and  _246
REMARK   98  A    between atoms: _246  and  _248
REMARK   99  A    between atoms: _248  and  ZN_369
REMARK  100  A    between atoms: _249  and  _251
REMARK  101  A    between atoms: _251  and  _252
REMARK  102  A    between atoms: _251  and  _254
REMARK  103  A    between atoms: _254  and  _255
REMARK  104  A    between atoms: _257  and  _259
REMARK  105  A    between atoms: _259  and  _260
REMARK  106  A    between atoms: _259  and  _262
REMARK  107  A    between atoms: _262  and  _263
REMARK  108  A    between atoms: _266  and  _268
REMARK  109  A    between atoms: _268  and  _269
REMARK  110  A    between atoms: _271  and  _273
REMARK  111  A    between atoms: _273  and  _274
REMARK  112  A    between atoms: _273  and  _276
REMARK  113  A    between atoms: _276  and  _277
REMARK  114  A    between atoms: _280  and  _282
REMARK  115  A    between atoms: _282  and  _283
REMARK  116  A    between atoms: _285  and  _287
REMARK  117  A    between atoms: _287  and  _288
REMARK  118  A    between atoms: _287  and  _290
REMARK  119  A    between atoms: _293  and  _295
REMARK  120  A    between atoms: _295  and  _296
REMARK  121  A    between atoms: _295  and  _298
REMARK  122  A    between atoms: _298  and  _299
REMARK  123  A    between atoms: _304  and  _305
REMARK  124  A    between atoms: _307  and  _309
REMARK  125  A    between atoms: _309  and  _310
REMARK  126  A    between atoms: _309  and  _312
REMARK  127  A    between atoms: _312  and  _313
REMARK  128  A    between atoms: _316  and  _318
REMARK  129  A    between atoms: _318  and  _319
REMARK  130  A    between atoms: _318  and  _321
REMARK  131  A    between atoms: _321  and  _322
REMARK  132  A    between atoms: _322  and  _323
REMARK  133  A    between atoms: _323  and  _324
REMARK  134  A    between atoms: _333  and  _335
REMARK  135  A    between atoms: _335  and  _336
REMARK  136  A    between atoms: _335  and  _338
REMARK  137  A    between atoms: _338  and  _339
REMARK  138  A    between atoms: _342  and  _344
REMARK  139  A    between atoms: _344  and  _345
REMARK  140  A    between atoms: _344  and  _347
REMARK  141  A    between atoms: _350  and  _352
REMARK  142  A    between atoms: _352  and  _353
REMARK  143  A    between atoms: _352  and  _355
REMARK  144  A    between atoms: _355  and  _356
REMARK  145  A    between atoms: _361  and  _363
REMARK  146  A    between atoms: _363  and  _364
REMARK  147  A    between atoms: _363  and  _366
REMARK  148  A    between atoms: _366  and  _367
REMARK                            x       y       z     vdW  Elec       q    Type
REMARK                         _______ _______ _______ _____ _____    ______ ____
ROOT
ATOM      1  C   THR A   1      37.820  34.812   6.451  0.00  0.00    +0.241 C 
ATOM      2  N   PHE A   2      36.520  34.932   6.709  0.00  0.00    -0.298 N 
ATOM      3  H   PHE A   2      35.963  34.068   6.866  0.00  0.00    +0.150 HD
ATOM      4  O   THR A   1      38.531  35.787   6.233  0.00  0.00    -0.274 OA
ENDROOT
BRANCH   1   5
ATOM      5  CA  THR A   1      38.424  33.413   6.431  0.00  0.00    +0.172 C 
BRANCH   5   6
ATOM      6  N   THR A   1      37.763  32.542   7.389  0.00  0.00    -0.236 NA
ATOM      7  H   THR A   1      37.071  31.845   7.046  0.00  0.00    +0.142 HD
ENDBRANCH   5   6
BRANCH   5   8
ATOM      8  CB  THR A   1      38.319  32.793   5.024  0.00  0.00    +0.135 C 
ATOM      9  CG2 THR A   1      38.859  33.705   3.938  0.00  0.00    +0.034 C 
BRANCH   8  10
ATOM     10  OG1 THR A   1      39.144  31.615   5.001  0.00  0.00    -0.383 OA
ATOM     11  HG1 THR A   1      38.822  30.975   5.684  0.00  0.00    +0.210 HD
ENDBRANCH   8  10
ENDBRANCH   5   8
ENDBRANCH   1   5
BRANCH   2  12
ATOM     12  CA  PHE A   2      35.846  36.214   6.781  0.00  0.00    +0.141 C 
BRANCH  12  13
ATOM     13  C   PHE A   2      34.686  36.189   7.780  0.00  0.00    +0.227 C 
ATOM     14  O   PHE A   2      34.081  35.130   7.936  0.00  0.00    -0.286 OA
ENDBRANCH  12  13
BRANCH  12  15
ATOM     15  CB  PHE A   2      35.196  36.578   5.456  0.00  0.00    +0.054 C 
BRANCH  15  16
ATOM     16  CG  PHE A   2      36.064  37.259   4.422  0.00  0.00    -0.020 A 
ATOM     17  CD2 PHE A   2      36.481  38.561   4.630  0.00  0.00    -0.004 A 
ATOM     18  CE2 PHE A   2      37.270  39.198   3.690  0.00  0.00    -0.000 A 
ATOM     19  CZ  PHE A   2      37.634  38.503   2.564  0.00  0.00    -0.000 A 
ATOM     20  CE1 PHE A   2      37.233  37.211   2.327  0.00  0.00    -0.000 A 
ATOM     21  CD1 PHE A   2      36.423  36.578   3.267  0.00  0.00    -0.004 A 
ENDBRANCH  15  16
ENDBRANCH  12  15
ENDBRANCH   2  12
TORSDOF 8
REMARK  Name = ../refined-set-2016/3fcq/3fcq_pocket.pdb
REMARK  148 active torsions:
REMARK  status: ('A' for Active; 'I' for Inactive)
REMARK    1  A    between atoms: _1  and  _3
REMARK    2  A    between atoms: _3  and  _4
REMARK    3  A    between atoms: _3  and  _6
REMARK    4  A    between atoms: _6  and  _7
REMARK    5  A    between atoms: _12  and  _13
REMARK    6  A    between atoms: _15  and  _17
REMARK    7  A    between atoms: _17  and  _18
REMARK    8  A    between atoms: _17  and  _20
REMARK    9  A    between atoms: _20  and  _21
REMARK   10  A    between atoms: _26  and  _28
REMARK   11  A    between atoms: _28  and  _29
REMARK   12  A    between atoms: _28  and  _31
REMARK   13  A    between atoms: _31  and  _32
REMARK   14  A    between atoms: _37  and  _39
REMARK   15  A    between atoms: _39  and  _40
REMARK   16  A    between atoms: _43  and  _45
REMARK   17  A    between atoms: _45  and  _46
REMARK   18  A    between atoms: _45  and  _48
REMARK   19  A    between atoms: _48  and  _49
REMARK   20  A    between atoms: _55  and  _57
REMARK   21  A    between atoms: _57  and  _58
REMARK   22  A    between atoms: _57  and  _60
REMARK   23  A    between atoms: _60  and  _61
REMARK   24  A    between atoms: _71  and  _73
REMARK   25  A    between atoms: _73  and  _74
REMARK   26  A    between atoms: _73  and  _76
REMARK   27  A    between atoms: _76  and  _77
REMARK   28  A    between atoms: _77  and  _78
REMARK   29  A    between atoms: _80  and  _82
REMARK   30  A    between atoms: _82  and  _83
REMARK   31  A    between atoms: _82  and  _85
REMARK   32  A    between atoms: _88  and  _90
REMARK   33  A    between atoms: _90  and  _91
REMARK   34  A    between atoms: _90  and  _93
REMARK   35  A    between atoms: _93  and  _94
REMARK   36  A    between atoms: _99  and  _100
REMARK   37  A    between atoms: _102  and  _104
REMARK   38  A    between atoms: _104  and  _105
REMARK   39  A    between atoms: _107  and  _109
REMARK   40  A    between atoms: _109  and  _110
REMARK   41  A    between atoms: _109  and  _112
REMARK   42  A    between atoms: _112  and  _113
REMARK   43  A    between atoms: _116  and  _118
REMARK   44  A    between atoms: _118  and  _119
REMARK   45  A    between atoms: _118  and  _121
REMARK   46  A    between atoms: _121  and  _122
REMARK   47  A    between atoms: _128  and  _130
REMARK   48  A    between atoms: _130  and  _131
REMARK   49  A    between atoms: _130  and  _133
REMARK   50  A    between atoms: _133  and  _134
REMARK   51  A    between atoms: _137  and  _139
REMARK   52  A    between atoms: _139  and  _140
REMARK   53  A    between atoms: _142  and  _144
REMARK   54  A    between atoms: _144  and  _145
REMARK   55  A    between atoms: _144  and  _147
REMARK   56  A    between atoms: _147  and  _148
REMARK   57  A    between atoms: _151  and  _153
REMARK   58  A    between atoms: _153  and  _154
REMARK   59  A    between atoms: _153  and  _156
REMARK   60  A    between atoms: _159  and  _161
REMARK   61  A    between atoms: _161  and  _162
REMARK   62  A    between atoms: _161  and  _164
REMARK   63  A    between atoms: _167  and  _169
REMARK   64  A    between atoms: _169  and  _170
REMARK   65  A    between atoms: _173  and  _175
REMARK   66  A    between atoms: _175  and  _176
REMARK   67  A    between atoms: _175  and  _178
REMARK   68  A    between atoms: _178  and  _179
REMARK   69  A    between atoms: _183  and  ZN_369
REMARK   70  A    between atoms: _184  and  _186
REMARK   71  A    between atoms: _186  and  _187
REMARK   72  A    between atoms: _186  and  _189
REMARK   73  A    between atoms: _189  and  _190
REMARK   74  A    between atoms: _190  and  _191
REMARK   75  A    between atoms: _194  and  _196
REMARK   76  A    between atoms: _196  and  _197
REMARK   77  A    between atoms: _196  and  _199
REMARK   78  A    between atoms: _199  and  _200
REMARK   79  A    between atoms: _203  and  _205
REMARK   80  A    between atoms: _205  and  _206
REMARK   81  A    between atoms: _205  and  _208
REMARK   82  A    between atoms: _208  and  _209
REMARK   83  A    between atoms: _213  and  ZN_369
REMARK   84  A    between atoms: _214  and  _216
REMARK   85  A    between atoms: _216  and  _217
REMARK   86  A    between atoms: _216  and  _219
REMARK   87  A    between atoms: _219  and  _220
REMARK   88  A    between atoms: _225  and  _226
REMARK   89  A    between atoms: _228  and  _230
REMARK   90  A    between atoms: _230  and  _231
REMARK   91  A    between atoms: _230  and  _233
REMARK   92  A    between atoms: _233  and  _234
REMARK   93  A    between atoms: _239  and  _241
REMARK   94  A    between atoms: _241  and  _242
REMARK   95  A    between atoms: _241  and  _244
REMARK   96  A    between atoms: _244  and  _245
REMARK   97  A    between atoms: _245  and  _246
REMARK   98  A    between atoms: _246  and  _248
REMARK   99  A    between atoms: _248  and  ZN_369
REMARK  100  A    between atoms: _249  and  _251
REMARK  101  A    between atoms: _251  and  _252
REMARK  102  A    between atoms: _251  and  _254
REMARK  103  A    between atoms: _254  and  _255
REMARK  104  A    between atoms: _257  and  _259
REMARK  105  A    between atoms: _259  and  _260
REMARK  106  A    between atoms: _259  and  _262
REMARK  107  A    between atoms: _262  and  _263
REMARK  108  A    between atoms: _266  and  _268
REMARK  109  A    between atoms: _268  and  _269
REMARK  110  A    between atoms: _271  and  _273
REMARK  111  A    between atoms: _273  and  _274
REMARK  112  A    between atoms: _273  and  _276
REMARK  113  A    between atoms: _276  and  _277
REMARK  114  A    between atoms: _280  and  _282
REMARK  115  A    between atoms: _282  and  _283
REMARK  116  A    between atoms: _285  and  _287
REMARK  117  A    between atoms: _287  and  _288
REMARK  118  A    between atoms: _287  and  _290
REMARK  119  A    between atoms: _293  and  _295
REMARK  120  A    between atoms: _295  and  _296
REMARK  121  A    between atoms: _295  and  _298
REMARK  122  A    between atoms: _298  and  _299
REMARK  123  A    between atoms: _304  and  _305
REMARK  124  A    between atoms: _307  and  _309
REMARK  125  A    between atoms: _309  and  _310
REMARK  126  A    between atoms: _309  and  _312
REMARK  127  A    between atoms: _312  and  _313
REMARK  128  A    between atoms: _316  and  _318
REMARK  129  A    between atoms: _318  and  _319
REMARK  130  A    between atoms: _318  and  _321
REMARK  131  A    between atoms: _321  and  _322
REMARK  132  A    between atoms: _322  and  _323
REMARK  133  A    between atoms: _323  and  _324
REMARK  134  A    between atoms: _333  and  _335
REMARK  135  A    between atoms: _335  and  _336
REMARK  136  A    between atoms: _335  and  _338
REMARK  137  A    between atoms: _338  and  _339
REMARK  138  A    between atoms: _342  and  _344
REMARK  139  A    between atoms: _344  and  _345
REMARK  140  A    between atoms: _344  and  _347
REMARK  141  A    between atoms: _350  and  _352
REMARK  142  A    between atoms: _352  and  _353
REMARK  143  A    between atoms: _352  and  _355
REMARK  144  A    between atoms: _355  and  _356
REMARK  145  A    between atoms: _361  and  _363
REMARK  146  A    between atoms: _363  and  _364
REMARK  147  A    between atoms: _363  and  _366
REMARK  148  A    between atoms: _366  and  _367
REMARK                            x       y       z     vdW  Elec       q    Type
REMARK                         _______ _______ _______ _____ _____    ______ ____
ROOT
ATOM      1  CA  LEU A   1      31.932  41.419   4.528  0.00  0.00    +0.133 C 
ENDROOT
BRANCH   1   2
ATOM      2  N   LEU A   1      30.994  40.552   5.226  0.00  0.00    -0.239 NA
ATOM      3  H   LEU A   1      30.402  39.890   4.685  0.00  0.00    +0.142 HD
ENDBRANCH   1   2
BRANCH   1   4
ATOM      4  C   LEU A   1      31.534  42.882   4.533  0.00  0.00    +0.224 C 
ATOM      5  O   LEU A   1      32.389  43.753   4.310  0.00  0.00    -0.287 OA
ENDBRANCH   1   4
BRANCH   1   6
ATOM      6  CB  LEU A   1      32.109  40.933   3.072  0.00  0.00    +0.025 C 
BRANCH   6   7
ATOM      7  CG  LEU A   1      33.115  39.767   2.967  0.00  0.00    +0.002 C 
ATOM      8  CD2 LEU A   1      32.421  38.456   3.289  0.00  0.00    +0.000 C 
ATOM      9  CD1 LEU A   1      33.780  39.693   1.612  0.00  0.00    +0.000 C 
ENDBRANCH   6   7
ENDBRANCH   1   6
TORSDOF 4
REMARK  Name = ../refined-set-2016/3fcq/3fcq_pocket.pdb
REMARK  148 active torsions:
REMARK  status: ('A' for Active; 'I' for Inactive)
REMARK    1  A    between atoms: _1  and  _3
REMARK    2  A    between atoms: _3  and  _4
REMARK    3  A    between atoms: _3  and  _6
REMARK    4  A    between atoms: _6  and  _7
REMARK    5  A    between atoms: _12  and  _13
REMARK    6  A    between atoms: _15  and  _17
REMARK    7  A    between atoms: _17  and  _18
REMARK    8  A    between atoms: _17  and  _20
REMARK    9  A    between atoms: _20  and  _21
REMARK   10  A    between atoms: _26  and  _28
REMARK   11  A    between atoms: _28  and  _29
REMARK   12  A    between atoms: _28  and  _31
REMARK   13  A    between atoms: _31  and  _32
REMARK   14  A    between atoms: _37  and  _39
REMARK   15  A    between atoms: _39  and  _40
REMARK   16  A    between atoms: _43  and  _45
REMARK   17  A    between atoms: _45  and  _46
REMARK   18  A    between atoms: _45  and  _48
REMARK   19  A    between atoms: _48  and  _49
REMARK   20  A    between atoms: _55  and  _57
REMARK   21  A    between atoms: _57  and  _58
REMARK   22  A    between atoms: _57  and  _60
REMARK   23  A    between atoms: _60  and  _61
REMARK   24  A    between atoms: _71  and  _73
REMARK   25  A    between atoms: _73  and  _74
REMARK   26  A    between atoms: _73  and  _76
REMARK   27  A    between atoms: _76  and  _77
REMARK   28  A    between atoms: _77  and  _78
REMARK   29  A    between atoms: _80  and  _82
REMARK   30  A    between atoms: _82  and  _83
REMARK   31  A    between atoms: _82  and  _85
REMARK   32  A    between atoms: _88  and  _90
REMARK   33  A    between atoms: _90  and  _91
REMARK   34  A    between atoms: _90  and  _93
REMARK   35  A    between atoms: _93  and  _94
REMARK   36  A    between atoms: _99  and  _100
REMARK   37  A    between atoms: _102  and  _104
REMARK   38  A    between atoms: _104  and  _105
REMARK   39  A    between atoms: _107  and  _109
REMARK   40  A    between atoms: _109  and  _110
REMARK   41  A    between atoms: _109  and  _112
REMARK   42  A    between atoms: _112  and  _113
REMARK   43  A    between atoms: _116  and  _118
REMARK   44  A    between atoms: _118  and  _119
REMARK   45  A    between atoms: _118  and  _121
REMARK   46  A    between atoms: _121  and  _122
REMARK   47  A    between atoms: _128  and  _130
REMARK   48  A    between atoms: _130  and  _131
REMARK   49  A    between atoms: _130  and  _133
REMARK   50  A    between atoms: _133  and  _134
REMARK   51  A    between atoms: _137  and  _139
REMARK   52  A    between atoms: _139  and  _140
REMARK   53  A    between atoms: _142  and  _144
REMARK   54  A    between atoms: _144  and  _145
REMARK   55  A    between atoms: _144  and  _147
REMARK   56  A    between atoms: _147  and  _148
REMARK   57  A    between atoms: _151  and  _153
REMARK   58  A    between atoms: _153  and  _154
REMARK   59  A    between atoms: _153  and  _156
REMARK   60  A    between atoms: _159  and  _161
REMARK   61  A    between atoms: _161  and  _162
REMARK   62  A    between atoms: _161  and  _164
REMARK   63  A    between atoms: _167  and  _169
REMARK   64  A    between atoms: _169  and  _170
REMARK   65  A    between atoms: _173  and  _175
REMARK   66  A    between atoms: _175  and  _176
REMARK   67  A    between atoms: _175  and  _178
REMARK   68  A    between atoms: _178  and  _179
REMARK   69  A    between atoms: _183  and  ZN_369
REMARK   70  A    between atoms: _184  and  _186
REMARK   71  A    between atoms: _186  and  _187
REMARK   72  A    between atoms: _186  and  _189
REMARK   73  A    between atoms: _189  and  _190
REMARK   74  A    between atoms: _190  and  _191
REMARK   75  A    between atoms: _194  and  _196
REMARK   76  A    between atoms: _196  and  _197
REMARK   77  A    between atoms: _196  and  _199
REMARK   78  A    between atoms: _199  and  _200
REMARK   79  A    between atoms: _203  and  _205
REMARK   80  A    between atoms: _205  and  _206
REMARK   81  A    between atoms: _205  and  _208
REMARK   82  A    between atoms: _208  and  _209
REMARK   83  A    between atoms: _213  and  ZN_369
REMARK   84  A    between atoms: _214  and  _216
REMARK   85  A    between atoms: _216  and  _217
REMARK   86  A    between atoms: _216  and  _219
REMARK   87  A    between atoms: _219  and  _220
REMARK   88  A    between atoms: _225  and  _226
REMARK   89  A    between atoms: _228  and  _230
REMARK   90  A    between atoms: _230  and  _231
REMARK   91  A    between atoms: _230  and  _233
REMARK   92  A    between atoms: _233  and  _234
REMARK   93  A    between atoms: _239  and  _241
REMARK   94  A    between atoms: _241  and  _242
REMARK   95  A    between atoms: _241  and  _244
REMARK   96  A    between atoms: _244  and  _245
REMARK   97  A    between atoms: _245  and  _246
REMARK   98  A    between atoms: _246  and  _248
REMARK   99  A    between atoms: _248  and  ZN_369
REMARK  100  A    between atoms: _249  and  _251
REMARK  101  A    between atoms: _251  and  _252
REMARK  102  A    between atoms: _251  and  _254
REMARK  103  A    between atoms: _254  and  _255
REMARK  104  A    between atoms: _257  and  _259
REMARK  105  A    between atoms: _259  and  _260
REMARK  106  A    between atoms: _259  and  _262
REMARK  107  A    between atoms: _262  and  _263
REMARK  108  A    between atoms: _266  and  _268
REMARK  109  A    between atoms: _268  and  _269
REMARK  110  A    between atoms: _271  and  _273
REMARK  111  A    between atoms: _273  and  _274
REMARK  112  A    between atoms: _273  and  _276
REMARK  113  A    between atoms: _276  and  _277
REMARK  114  A    between atoms: _280  and  _282
REMARK  115  A    between atoms: _282  and  _283
REMARK  116  A    between atoms: _285  and  _287
REMARK  117  A    between atoms: _287  and  _288
REMARK  118  A    between atoms: _287  and  _290
REMARK  119  A    between atoms: _293  and  _295
REMARK  120  A    between atoms: _295  and  _296
REMARK  121  A    between atoms: _295  and  _298
REMARK  122  A    between atoms: _298  and  _299
REMARK  123  A    between atoms: _304  and  _305
REMARK  124  A    between atoms: _307  and  _309
REMARK  125  A    between atoms: _309  and  _310
REMARK  126  A    between atoms: _309  and  _312
REMARK  127  A    between atoms: _312  and  _313
REMARK  128  A    between atoms: _316  and  _318
REMARK  129  A    between atoms: _318  and  _319
REMARK  130  A    between atoms: _318  and  _321
REMARK  131  A    between atoms: _321  and  _322
REMARK  132  A    between atoms: _322  and  _323
REMARK  133  A    between atoms: _323  and  _324
REMARK  134  A    between atoms: _333  and  _335
REMARK  135  A    between atoms: _335  and  _336
REMARK  136  A    between atoms: _335  and  _338
REMARK  137  A    between atoms: _338  and  _339
REMARK  138  A    between atoms: _342  and  _344
REMARK  139  A    between atoms: _344  and  _345
REMARK  140  A    between atoms: _344  and  _347
REMARK  141  A    between atoms: _350  and  _352
REMARK  142  A    between atoms: _352  and  _353
REMARK  143  A    between atoms: _352  and  _355
REMARK  144  A    between atoms: _355  and  _356
REMARK  145  A    between atoms: _361  and  _363
REMARK  146  A    between atoms: _363  and  _364
REMARK  147  A    between atoms: _363  and  _366
REMARK  148  A    between atoms: _366  and  _367
REMARK                            x       y       z     vdW  Elec       q    Type
REMARK                         _______ _______ _______ _____ _____    ______ ____
ROOT
ATOM      1  CA  GLY A   1      34.515  46.614   6.011  0.00  0.00    +0.156 C 
ENDROOT
BRANCH   1   2
ATOM      2  N   GLY A   1      33.357  45.879   6.487  0.00  0.00    -0.238 NA
ATOM      3  H   GLY A   1      32.878  45.220   5.840  0.00  0.00    +0.142 HD
ENDBRANCH   1   2
BRANCH   1   4
ATOM      4  C   GLY A   1      34.106  47.783   5.131  0.00  0.00    +0.226 C 
ATOM      5  O   GLY A   1      33.566  47.577   4.035  0.00  0.00    -0.287 OA
ENDBRANCH   1   4
TORSDOF 2
REMARK  Name = ../refined-set-2016/3fcq/3fcq_pocket.pdb
REMARK  148 active torsions:
REMARK  status: ('A' for Active; 'I' for Inactive)
REMARK    1  A    between atoms: _1  and  _3
REMARK    2  A    between atoms: _3  and  _4
REMARK    3  A    between atoms: _3  and  _6
REMARK    4  A    between atoms: _6  and  _7
REMARK    5  A    between atoms: _12  and  _13
REMARK    6  A    between atoms: _15  and  _17
REMARK    7  A    between atoms: _17  and  _18
REMARK    8  A    between atoms: _17  and  _20
REMARK    9  A    between atoms: _20  and  _21
REMARK   10  A    between atoms: _26  and  _28
REMARK   11  A    between atoms: _28  and  _29
REMARK   12  A    between atoms: _28  and  _31
REMARK   13  A    between atoms: _31  and  _32
REMARK   14  A    between atoms: _37  and  _39
REMARK   15  A    between atoms: _39  and  _40
REMARK   16  A    between atoms: _43  and  _45
REMARK   17  A    between atoms: _45  and  _46
REMARK   18  A    between atoms: _45  and  _48
REMARK   19  A    between atoms: _48  and  _49
REMARK   20  A    between atoms: _55  and  _57
REMARK   21  A    between atoms: _57  and  _58
REMARK   22  A    between atoms: _57  and  _60
REMARK   23  A    between atoms: _60  and  _61
REMARK   24  A    between atoms: _71  and  _73
REMARK   25  A    between atoms: _73  and  _74
REMARK   26  A    between atoms: _73  and  _76
REMARK   27  A    between atoms: _76  and  _77
REMARK   28  A    between atoms: _77  and  _78
REMARK   29  A    between atoms: _80  and  _82
REMARK   30  A    between atoms: _82  and  _83
REMARK   31  A    between atoms: _82  and  _85
REMARK   32  A    between atoms: _88  and  _90
REMARK   33  A    between atoms: _90  and  _91
REMARK   34  A    between atoms: _90  and  _93
REMARK   35  A    between atoms: _93  and  _94
REMARK   36  A    between atoms: _99  and  _100
REMARK   37  A    between atoms: _102  and  _104
REMARK   38  A    between atoms: _104  and  _105
REMARK   39  A    between atoms: _107  and  _109
REMARK   40  A    between atoms: _109  and  _110
REMARK   41  A    between atoms: _109  and  _112
REMARK   42  A    between atoms: _112  and  _113
REMARK   43  A    between atoms: _116  and  _118
REMARK   44  A    between atoms: _118  and  _119
REMARK   45  A    between atoms: _118  and  _121
REMARK   46  A    between atoms: _121  and  _122
REMARK   47  A    between atoms: _128  and  _130
REMARK   48  A    between atoms: _130  and  _131
REMARK   49  A    between atoms: _130  and  _133
REMARK   50  A    between atoms: _133  and  _134
REMARK   51  A    between atoms: _137  and  _139
REMARK   52  A    between atoms: _139  and  _140
REMARK   53  A    between atoms: _142  and  _144
REMARK   54  A    between atoms: _144  and  _145
REMARK   55  A    between atoms: _144  and  _147
REMARK   56  A    between atoms: _147  and  _148
REMARK   57  A    between atoms: _151  and  _153
REMARK   58  A    between atoms: _153  and  _154
REMARK   59  A    between atoms: _153  and  _156
REMARK   60  A    between atoms: _159  and  _161
REMARK   61  A    between atoms: _161  and  _162
REMARK   62  A    between atoms: _161  and  _164
REMARK   63  A    between atoms: _167  and  _169
REMARK   64  A    between atoms: _169  and  _170
REMARK   65  A    between atoms: _173  and  _175
REMARK   66  A    between atoms: _175  and  _176
REMARK   67  A    between atoms: _175  and  _178
REMARK   68  A    between atoms: _178  and  _179
REMARK   69  A    between atoms: _183  and  ZN_369
REMARK   70  A    between atoms: _184  and  _186
REMARK   71  A    between atoms: _186  and  _187
REMARK   72  A    between atoms: _186  and  _189
REMARK   73  A    between atoms: _189  and  _190
REMARK   74  A    between atoms: _190  and  _191
REMARK   75  A    between atoms: _194  and  _196
REMARK   76  A    between atoms: _196  and  _197
REMARK   77  A    between atoms: _196  and  _199
REMARK   78  A    between atoms: _199  and  _200
REMARK   79  A    between atoms: _203  and  _205
REMARK   80  A    between atoms: _205  and  _206
REMARK   81  A    between atoms: _205  and  _208
REMARK   82  A    between atoms: _208  and  _209
REMARK   83  A    between atoms: _213  and  ZN_369
REMARK   84  A    between atoms: _214  and  _216
REMARK   85  A    between atoms: _216  and  _217
REMARK   86  A    between atoms: _216  and  _219
REMARK   87  A    between atoms: _219  and  _220
REMARK   88  A    between atoms: _225  and  _226
REMARK   89  A    between atoms: _228  and  _230
REMARK   90  A    between atoms: _230  and  _231
REMARK   91  A    between atoms: _230  and  _233
REMARK   92  A    between atoms: _233  and  _234
REMARK   93  A    between atoms: _239  and  _241
REMARK   94  A    between atoms: _241  and  _242
REMARK   95  A    between atoms: _241  and  _244
REMARK   96  A    between atoms: _244  and  _245
REMARK   97  A    between atoms: _245  and  _246
REMARK   98  A    between atoms: _246  and  _248
REMARK   99  A    between atoms: _248  and  ZN_369
REMARK  100  A    between atoms: _249  and  _251
REMARK  101  A    between atoms: _251  and  _252
REMARK  102  A    between atoms: _251  and  _254
REMARK  103  A    between atoms: _254  and  _255
REMARK  104  A    between atoms: _257  and  _259
REMARK  105  A    between atoms: _259  and  _260
REMARK  106  A    between atoms: _259  and  _262
REMARK  107  A    between atoms: _262  and  _263
REMARK  108  A    between atoms: _266  and  _268
REMARK  109  A    between atoms: _268  and  _269
REMARK  110  A    between atoms: _271  and  _273
REMARK  111  A    between atoms: _273  and  _274
REMARK  112  A    between atoms: _273  and  _276
REMARK  113  A    between atoms: _276  and  _277
REMARK  114  A    between atoms: _280  and  _282
REMARK  115  A    between atoms: _282  and  _283
REMARK  116  A    between atoms: _285  and  _287
REMARK  117  A    between atoms: _287  and  _288
REMARK  118  A    between atoms: _287  and  _290
REMARK  119  A    between atoms: _293  and  _295
REMARK  120  A    between atoms: _295  and  _296
REMARK  121  A    between atoms: _295  and  _298
REMARK  122  A    between atoms: _298  and  _299
REMARK  123  A    between atoms: _304  and  _305
REMARK  124  A    between atoms: _307  and  _309
REMARK  125  A    between atoms: _309  and  _310
REMARK  126  A    between atoms: _309  and  _312
REMARK  127  A    between atoms: _312  and  _313
REMARK  128  A    between atoms: _316  and  _318
REMARK  129  A    between atoms: _318  and  _319
REMARK  130  A    between atoms: _318  and  _321
REMARK  131  A    between atoms: _321  and  _322
REMARK  132  A    between atoms: _322  and  _323
REMARK  133  A    between atoms: _323  and  _324
REMARK  134  A    between atoms: _333  and  _335
REMARK  135  A    between atoms: _335  and  _336
REMARK  136  A    between atoms: _335  and  _338
REMARK  137  A    between atoms: _338  and  _339
REMARK  138  A    between atoms: _342  and  _344
REMARK  139  A    between atoms: _344  and  _345
REMARK  140  A    between atoms: _344  and  _347
REMARK  141  A    between atoms: _350  and  _352
REMARK  142  A    between atoms: _352  and  _353
REMARK  143  A    between atoms: _352  and  _355
REMARK  144  A    between atoms: _355  and  _356
REMARK  145  A    between atoms: _361  and  _363
REMARK  146  A    between atoms: _363  and  _364
REMARK  147  A    between atoms: _363  and  _366
REMARK  148  A    between atoms: _366  and  _367
REMARK                            x       y       z     vdW  Elec       q    Type
REMARK                         _______ _______ _______ _____ _____    ______ ____
ROOT
ATOM      1  C   UNK A   5      35.084  48.848  -3.407  0.00  0.00    +0.000 C 
ENDROOT
BRANCH   1   3
ATOM      2  C   ALA A   4      33.766  50.651  -2.387  0.00  0.00    +0.000 C 
ATOM      3  N   UNK A   5      34.524  49.573  -2.255  0.00  0.00    +0.000 N 
ATOM      4  H   UNK A   5      34.732  49.224  -1.298  0.00  0.00    +0.000 HD
ATOM      5  O   ALA A   4      33.613  51.152  -3.514  0.00  0.00    +0.000 OA
BRANCH   2   6
ATOM      6  CA  ALA A   4      33.087  51.254  -1.162  0.00  0.00    +0.000 C 
ATOM      7  CB  ALA A   4      33.936  52.335  -0.503  0.00  0.00    +0.000 C 
BRANCH   6   9
ATOM      8  C   VAL A   3      31.846  49.337  -0.434  0.00  0.00    +0.000 C 
ATOM      9  N   ALA A   4      32.763  50.253  -0.136  0.00  0.00    +0.000 N 
ATOM     10  H   ALA A   4      33.234  50.261   0.791  0.00  0.00    +0.000 HD
ATOM     11  O   VAL A   3      31.317  49.323  -1.553  0.00  0.00    +0.000 OA
BRANCH   8  12
ATOM     12  CA  VAL A   3      31.519  48.336   0.655  0.00  0.00    +0.000 C 
BRANCH  12  14
ATOM     13  C   UNK A   2      33.581  47.091   0.345  0.00  0.00    +0.000 C 
ATOM     14  N   VAL A   3      32.760  47.728   1.185  0.00  0.00    +0.000 N 
ATOM     15  H   VAL A   3      32.990  47.796   2.197  0.00  0.00    +0.000 HD
ATOM     16  O   UNK A   2      33.319  46.968  -0.863  0.00  0.00    +0.000 OA
BRANCH  13  17
ATOM     17  C   UNK A   2      34.874  46.521   0.916  0.00  0.00    +0.000 C 
BRANCH  17  19
ATOM     18  C   UNK A   1      36.076  48.604   1.179  0.00  0.00    +0.000 C 
ATOM     19  N   UNK A   2      35.560  47.509   1.742  0.00  0.00    +0.000 N 
ATOM     20  H   UNK A   2      35.647  47.360   2.768  0.00  0.00    +0.000 HD
ATOM     21  O   UNK A   1      36.038  48.773  -0.048  0.00  0.00    +0.000 OA
BRANCH  18  22
ATOM     22  C   UNK A   1      36.687  49.652   2.101  0.00  0.00    +0.000 C 
BRANCH  22  23
ATOM     23  N   UNK A   1      35.977  49.722   3.387  0.00  0.00    +0.000 NA
ATOM     24  H   UNK A   1      36.465  49.443   4.262  0.00  0.00    +0.000 HD
ENDBRANCH  22  23
BRANCH  22  25
ATOM     25  C   UNK A   1      38.180  49.391   2.295  0.00  0.00    +0.000 C 
BRANCH  25  26
ATOM     26  C   UNK A   1      38.518  48.255   3.237  0.00  0.00    +0.000 C 
ATOM     27  O   UNK A   1      37.645  47.503   3.714  0.00  0.00    +0.000 OA
ATOM     28  O   UNK A   1      39.730  48.083   3.532  0.00  0.00    +0.000 OA
ENDBRANCH  25  26
ENDBRANCH  22  25
ENDBRANCH  18  22
ENDBRANCH  17  19
BRANCH  17  29
ATOM     29  C   UNK A   2      34.526  45.253   1.727  0.00  0.00    +0.000 C 
ATOM     30  C   UNK A   2      35.788  44.557   2.227  0.00  0.00    +0.000 C 
ATOM     31  C   UNK A   2      33.677  44.308   0.888  0.00  0.00    +0.000 C 
ENDBRANCH  17  29
ENDBRANCH  13  17
ENDBRANCH  12  14
BRANCH  12  32
ATOM     32  CB  VAL A   3      30.718  48.984   1.787  0.00  0.00    +0.000 C 
ATOM     33  CG2 VAL A   3      30.187  47.882   2.723  0.00  0.00    +0.000 C 
ATOM     34  CG1 VAL A   3      29.541  49.808   1.293  0.00  0.00    +0.000 C 
ENDBRANCH  12  32
ENDBRANCH   8  12
ENDBRANCH   6   9
ENDBRANCH   2   6
ENDBRANCH   1   3
BRANCH   1  35
ATOM     35  C   UNK A   5      33.959  48.401  -4.332  0.00  0.00    +0.000 C 
ATOM     36  N   GLU A   6      32.950  47.798  -3.701  0.00  0.00    +0.000 N 
ATOM     37  H   GLU A   6      32.958  47.707  -2.665  0.00  0.00    +0.000 HD
ATOM     38  O   UNK A   5      33.999  48.554  -5.559  0.00  0.00    +0.000 OA
BRANCH  36  39
ATOM     39  CA  GLU A   6      31.833  47.267  -4.479  0.00  0.00    +0.000 C 
BRANCH  39  40
ATOM     40  C   GLU A   6      31.063  48.397  -5.160  0.00  0.00    +0.000 C 
ATOM     41  N   LEU A   7      30.736  49.470  -4.426  0.00  0.00    +0.000 N 
ATOM     42  H   LEU A   7      31.017  49.555  -3.428  0.00  0.00    +0.000 HD
ATOM     43  O   GLU A   6      30.749  48.294  -6.350  0.00  0.00    +0.000 OA
BRANCH  41  44
ATOM     44  CA  LEU A   7      29.957  50.526  -5.104  0.00  0.00    +0.000 C 
BRANCH  44  45
ATOM     45  C   LEU A   7      30.785  51.138  -6.222  0.00  0.00    +0.000 C 
ATOM     46  O   LEU A   7      30.313  51.548  -7.292  0.00  0.00    +0.000 OA
ENDBRANCH  44  45
BRANCH  44  47
ATOM     47  CB  LEU A   7      29.500  51.556  -4.071  0.00  0.00    +0.000 C 
BRANCH  47  48
ATOM     48  CG  LEU A   7      28.467  52.573  -4.558  0.00  0.00    +0.000 C 
ATOM     49  CD2 LEU A   7      28.049  53.497  -3.427  0.00  0.00    +0.000 C 
ATOM     50  CD1 LEU A   7      27.239  51.876  -5.108  0.00  0.00    +0.000 C 
ENDBRANCH  47  48
ENDBRANCH  44  47
ENDBRANCH  41  44
ENDBRANCH  39  40
BRANCH  39  51
ATOM     51  CB  GLU A   6      30.889  46.434  -3.615  0.00  0.00    +0.000 C 
BRANCH  51  52
ATOM     52  CG  GLU A   6      31.517  45.265  -2.862  0.00  0.00    +0.000 C 
BRANCH  52  53
ATOM     53  CD  GLU A   6      32.375  44.368  -3.736  0.00  0.00    +0.000 C 
ATOM     54  OE2 GLU A   6      33.217  43.667  -3.130  0.00  0.00    +0.000 OA
ATOM     55  OE1 GLU A   6      32.247  44.334  -4.974  0.00  0.00    +0.000 OA
ENDBRANCH  52  53
ENDBRANCH  51  52
ENDBRANCH  39  51
ENDBRANCH  36  39
ENDBRANCH   1  35
BRANCH   1  56
ATOM     56  C   UNK A   5      35.908  47.650  -2.921  0.00  0.00    +0.000 C 
BRANCH  56  57
ATOM     57  C   UNK A   5      36.475  46.711  -3.952  0.00  0.00    +0.000 A 
ATOM     58  N   UNK A   5      37.831  46.627  -4.191  0.00  0.00    +0.000 NA
ATOM     59  C   UNK A   5      38.074  45.731  -5.136  0.00  0.00    +0.000 A 
ATOM     60  N   UNK A   5      36.922  45.207  -5.527  0.00  0.00    +0.000 N 
ATOM     61  C   UNK A   5      35.924  45.805  -4.793  0.00  0.00    +0.000 A 
BRANCH  60  62
ATOM     62 ZN   UNK A   5      36.402  44.027  -6.991  0.00  0.00    +0.000 Zn
BRANCH  62  63
ATOM     63  N   UNK A   1      35.178  45.144  -8.150  0.00  0.00    +0.000 N 
ATOM     64  C   UNK A   1      33.912  45.615  -7.871  0.00  0.00    +0.000 A 
ATOM     65  C   UNK A   1      33.574  46.472  -8.865  0.00  0.00    +0.000 A 
ATOM     66  N   UNK A   1      34.650  46.498  -9.714  0.00  0.00    +0.000 NA
ATOM     67  C   UNK A   1      35.617  45.695  -9.267  0.00  0.00    +0.000 A 
BRANCH  65  68
ATOM     68  C   UNK A   1      32.317  47.272  -9.089  0.00  0.00    +0.000 C 
BRANCH  68  69
ATOM     69  C   UNK A   1      32.534  48.741  -9.413  0.00  0.00    +0.000 C 
BRANCH  69  70
ATOM     70  C   UNK A   1      31.364  49.253 -10.259  0.00  0.00    +0.000 C 
ATOM     71  O   UNK A   1      31.395  49.258 -11.488  0.00  0.00    +0.000 OA
ENDBRANCH  69  70
BRANCH  69  72
ATOM     72  N   UNK A   1      32.661  49.574  -8.214  0.00  0.00    +0.000 NA
ATOM     73  H   UNK A   1      32.558  49.145  -7.272  0.00  0.00    +0.000 HD
ENDBRANCH  69  72
ENDBRANCH  68  69
ENDBRANCH  65  68
ENDBRANCH  62  63
BRANCH  62  74
ATOM     74  O   UNK A   2      37.698  43.541  -8.397  0.00  0.00    +0.000 OA
BRANCH  74  75
ATOM     75  C   UNK A   2      38.925  43.672  -8.182  0.00  0.00    +0.000 C 
ATOM     76  O   UNK A   2      39.448  43.810  -7.051  0.00  0.00    +0.000 OA
BRANCH  75  77
ATOM     77  C   UNK A   2      39.839  43.641  -9.404  0.00  0.00    +0.000 C 
BRANCH  77  78
ATOM     78  C   UNK A   2      40.750  44.863  -9.457  0.00  0.00    +0.000 C 
BRANCH  78  79
ATOM     79  C   UNK A   2      39.986  46.186  -9.498  0.00  0.00    +0.000 C 
BRANCH  79  80
ATOM     80  N   UNK A   2      39.776  46.567 -10.894  0.00  0.00    +0.000 N 
ATOM     81  C   UNK A   1      39.093  47.648 -11.248  0.00  0.00    +0.000 C 
ATOM     82  O   UNK A   1      38.575  48.369 -10.388  0.00  0.00    +0.000 OA
ATOM     83  H   UNK A   2      40.179  45.965 -11.641  0.00  0.00    +0.000 HD
BRANCH  81  84
ATOM     84  C   UNK A   1      38.999  47.948 -12.748  0.00  0.00    +0.000 C 
BRANCH  84  85
ATOM     85  N   UNK A   1      40.323  47.921 -13.364  0.00  0.00    +0.000 NA
ATOM     86  H   UNK A   1      40.492  47.321 -14.196  0.00  0.00    +0.000 HD
ENDBRANCH  84  85
BRANCH  84  87
ATOM     87  C   UNK A   1      38.115  46.957 -13.500  0.00  0.00    +0.000 C 
BRANCH  87  88
ATOM     88  C   UNK A   1      36.679  46.958 -13.010  0.00  0.00    +0.000 C 
ATOM     89  O   UNK A   1      36.454  46.932 -11.801  0.00  0.00    +0.000 OA
ATOM     90  N   UNK A   1      35.700  46.953 -13.913  0.00  0.00    +0.000 N 
ATOM     91  H   UNK A   1      34.707  46.926 -13.604  0.00  0.00    +0.000 HD
ATOM     92  H   UNK A   1      35.928  46.976 -14.927  0.00  0.00    +0.000 HD
ENDBRANCH  87  88
ENDBRANCH  84  87
ENDBRANCH  81  84
ENDBRANCH  79  80
BRANCH  79  93
ATOM     93  C   UNK A   2      40.745  47.242  -8.708  0.00  0.00    +0.000 C 
ATOM     94  O   UNK A   2      40.393  47.586  -7.577  0.00  0.00    +0.000 OA
ENDBRANCH  79  93
ENDBRANCH  78  79
ENDBRANCH  77  78
ENDBRANCH  75  77
ENDBRANCH  74  75
ENDBRANCH  62  74
ENDBRANCH  60  62
ENDBRANCH  56  57
ENDBRANCH   1  56
TORSDOF 42
REMARK  Name = ../refined-set-2016/3fcq/3fcq_pocket.pdb
REMARK  148 active torsions:
REMARK  status: ('A' for Active; 'I' for Inactive)
REMARK    1  A    between atoms: _1  and  _3
REMARK    2  A    between atoms: _3  and  _4
REMARK    3  A    between atoms: _3  and  _6
REMARK    4  A    between atoms: _6  and  _7
REMARK    5  A    between atoms: _12  and  _13
REMARK    6  A    between atoms: _15  and  _17
REMARK    7  A    between atoms: _17  and  _18
REMARK    8  A    between atoms: _17  and  _20
REMARK    9  A    between atoms: _20  and  _21
REMARK   10  A    between atoms: _26  and  _28
REMARK   11  A    between atoms: _28  and  _29
REMARK   12  A    between atoms: _28  and  _31
REMARK   13  A    between atoms: _31  and  _32
REMARK   14  A    between atoms: _37  and  _39
REMARK   15  A    between atoms: _39  and  _40
REMARK   16  A    between atoms: _43  and  _45
REMARK   17  A    between atoms: _45  and  _46
REMARK   18  A    between atoms: _45  and  _48
REMARK   19  A    between atoms: _48  and  _49
REMARK   20  A    between atoms: _55  and  _57
REMARK   21  A    between atoms: _57  and  _58
REMARK   22  A    between atoms: _57  and  _60
REMARK   23  A    between atoms: _60  and  _61
REMARK   24  A    between atoms: _71  and  _73
REMARK   25  A    between atoms: _73  and  _74
REMARK   26  A    between atoms: _73  and  _76
REMARK   27  A    between atoms: _76  and  _77
REMARK   28  A    between atoms: _77  and  _78
REMARK   29  A    between atoms: _80  and  _82
REMARK   30  A    between atoms: _82  and  _83
REMARK   31  A    between atoms: _82  and  _85
REMARK   32  A    between atoms: _88  and  _90
REMARK   33  A    between atoms: _90  and  _91
REMARK   34  A    between atoms: _90  and  _93
REMARK   35  A    between atoms: _93  and  _94
REMARK   36  A    between atoms: _99  and  _100
REMARK   37  A    between atoms: _102  and  _104
REMARK   38  A    between atoms: _104  and  _105
REMARK   39  A    between atoms: _107  and  _109
REMARK   40  A    between atoms: _109  and  _110
REMARK   41  A    between atoms: _109  and  _112
REMARK   42  A    between atoms: _112  and  _113
REMARK   43  A    between atoms: _116  and  _118
REMARK   44  A    between atoms: _118  and  _119
REMARK   45  A    between atoms: _118  and  _121
REMARK   46  A    between atoms: _121  and  _122
REMARK   47  A    between atoms: _128  and  _130
REMARK   48  A    between atoms: _130  and  _131
REMARK   49  A    between atoms: _130  and  _133
REMARK   50  A    between atoms: _133  and  _134
REMARK   51  A    between atoms: _137  and  _139
REMARK   52  A    between atoms: _139  and  _140
REMARK   53  A    between atoms: _142  and  _144
REMARK   54  A    between atoms: _144  and  _145
REMARK   55  A    between atoms: _144  and  _147
REMARK   56  A    between atoms: _147  and  _148
REMARK   57  A    between atoms: _151  and  _153
REMARK   58  A    between atoms: _153  and  _154
REMARK   59  A    between atoms: _153  and  _156
REMARK   60  A    between atoms: _159  and  _161
REMARK   61  A    between atoms: _161  and  _162
REMARK   62  A    between atoms: _161  and  _164
REMARK   63  A    between atoms: _167  and  _169
REMARK   64  A    between atoms: _169  and  _170
REMARK   65  A    between atoms: _173  and  _175
REMARK   66  A    between atoms: _175  and  _176
REMARK   67  A    between atoms: _175  and  _178
REMARK   68  A    between atoms: _178  and  _179
REMARK   69  A    between atoms: _183  and  ZN_369
REMARK   70  A    between atoms: _184  and  _186
REMARK   71  A    between atoms: _186  and  _187
REMARK   72  A    between atoms: _186  and  _189
REMARK   73  A    between atoms: _189  and  _190
REMARK   74  A    between atoms: _190  and  _191
REMARK   75  A    between atoms: _194  and  _196
REMARK   76  A    between atoms: _196  and  _197
REMARK   77  A    between atoms: _196  and  _199
REMARK   78  A    between atoms: _199  and  _200
REMARK   79  A    between atoms: _203  and  _205
REMARK   80  A    between atoms: _205  and  _206
REMARK   81  A    between atoms: _205  and  _208
REMARK   82  A    between atoms: _208  and  _209
REMARK   83  A    between atoms: _213  and  ZN_369
REMARK   84  A    between atoms: _214  and  _216
REMARK   85  A    between atoms: _216  and  _217
REMARK   86  A    between atoms: _216  and  _219
REMARK   87  A    between atoms: _219  and  _220
REMARK   88  A    between atoms: _225  and  _226
REMARK   89  A    between atoms: _228  and  _230
REMARK   90  A    between atoms: _230  and  _231
REMARK   91  A    between atoms: _230  and  _233
REMARK   92  A    between atoms: _233  and  _234
REMARK   93  A    between atoms: _239  and  _241
REMARK   94  A    between atoms: _241  and  _242
REMARK   95  A    between atoms: _241  and  _244
REMARK   96  A    between atoms: _244  and  _245
REMARK   97  A    between atoms: _245  and  _246
REMARK   98  A    between atoms: _246  and  _248
REMARK   99  A    between atoms: _248  and  ZN_369
REMARK  100  A    between atoms: _249  and  _251
REMARK  101  A    between atoms: _251  and  _252
REMARK  102  A    between atoms: _251  and  _254
REMARK  103  A    between atoms: _254  and  _255
REMARK  104  A    between atoms: _257  and  _259
REMARK  105  A    between atoms: _259  and  _260
REMARK  106  A    between atoms: _259  and  _262
REMARK  107  A    between atoms: _262  and  _263
REMARK  108  A    between atoms: _266  and  _268
REMARK  109  A    between atoms: _268  and  _269
REMARK  110  A    between atoms: _271  and  _273
REMARK  111  A    between atoms: _273  and  _274
REMARK  112  A    between atoms: _273  and  _276
REMARK  113  A    between atoms: _276  and  _277
REMARK  114  A    between atoms: _280  and  _282
REMARK  115  A    between atoms: _282  and  _283
REMARK  116  A    between atoms: _285  and  _287
REMARK  117  A    between atoms: _287  and  _288
REMARK  118  A    between atoms: _287  and  _290
REMARK  119  A    between atoms: _293  and  _295
REMARK  120  A    between atoms: _295  and  _296
REMARK  121  A    between atoms: _295  and  _298
REMARK  122  A    between atoms: _298  and  _299
REMARK  123  A    between atoms: _304  and  _305
REMARK  124  A    between atoms: _307  and  _309
REMARK  125  A    between atoms: _309  and  _310
REMARK  126  A    between atoms: _309  and  _312
REMARK  127  A    between atoms: _312  and  _313
REMARK  128  A    between atoms: _316  and  _318
REMARK  129  A    between atoms: _318  and  _319
REMARK  130  A    between atoms: _318  and  _321
REMARK  131  A    between atoms: _321  and  _322
REMARK  132  A    between atoms: _322  and  _323
REMARK  133  A    between atoms: _323  and  _324
REMARK  134  A    between atoms: _333  and  _335
REMARK  135  A    between atoms: _335  and  _336
REMARK  136  A    between atoms: _335  and  _338
REMARK  137  A    between atoms: _338  and  _339
REMARK  138  A    between atoms: _342  and  _344
REMARK  139  A    between atoms: _344  and  _345
REMARK  140  A    between atoms: _344  and  _347
REMARK  141  A    between atoms: _350  and  _352
REMARK  142  A    between atoms: _352  and  _353
REMARK  143  A    between atoms: _352  and  _355
REMARK  144  A    between atoms: _355  and  _356
REMARK  145  A    between atoms: _361  and  _363
REMARK  146  A    between atoms: _363  and  _364
REMARK  147  A    between atoms: _363  and  _366
REMARK  148  A    between atoms: _366  and  _367
REMARK                            x       y       z     vdW  Elec       q    Type
REMARK                         _______ _______ _______ _____ _____    ______ ____
ROOT
ATOM      1  CG  TYR A   1      35.959  41.943 -13.910  0.00  0.00    -0.020 A 
ATOM      2  CD2 TYR A   1      36.367  43.050 -13.183  0.00  0.00    -0.001 A 
ATOM      3  CE2 TYR A   1      36.694  42.941 -11.838  0.00  0.00    +0.036 A 
ATOM      4  CZ  TYR A   1      36.607  41.706 -11.223  0.00  0.00    +0.134 A 
ATOM      5  CE1 TYR A   1      36.202  40.590 -11.927  0.00  0.00    +0.036 A 
ATOM      6  CD1 TYR A   1      35.877  40.702 -13.277  0.00  0.00    -0.001 A 
ENDROOT
BRANCH   4   7
ATOM      7  OH  TYR A   1      36.941  41.636  -9.881  0.00  0.00    -0.506 OA
ATOM      8  HH  TYR A   1      37.203  42.535  -9.560  0.00  0.00    +0.292 HD
ENDBRANCH   4   7
BRANCH   1   9
ATOM      9  CB  TYR A   1      35.606  42.099 -15.381  0.00  0.00    +0.051 C 
BRANCH   9  10
ATOM     10  CA  TYR A   1      36.780  42.584 -16.238  0.00  0.00    +0.137 C 
BRANCH  10  11
ATOM     11  N   TYR A   1      36.263  43.248 -17.442  0.00  0.00    -0.239 NA
ATOM     12  H   TYR A   1      35.329  42.977 -17.810  0.00  0.00    +0.142 HD
ENDBRANCH  10  11
BRANCH  10  13
ATOM     13  C   TYR A   1      37.697  41.430 -16.580  0.00  0.00    +0.224 C 
ATOM     14  O   TYR A   1      37.484  40.281 -16.177  0.00  0.00    -0.287 OA
ENDBRANCH  10  13
ENDBRANCH   9  10
ENDBRANCH   1   9
TORSDOF 5
REMARK  Name = ../refined-set-2016/3fcq/3fcq_pocket.pdb
REMARK  148 active torsions:
REMARK  status: ('A' for Active; 'I' for Inactive)
REMARK    1  A    between atoms: _1  and  _3
REMARK    2  A    between atoms: _3  and  _4
REMARK    3  A    between atoms: _3  and  _6
REMARK    4  A    between atoms: _6  and  _7
REMARK    5  A    between atoms: _12  and  _13
REMARK    6  A    between atoms: _15  and  _17
REMARK    7  A    between atoms: _17  and  _18
REMARK    8  A    between atoms: _17  and  _20
REMARK    9  A    between atoms: _20  and  _21
REMARK   10  A    between atoms: _26  and  _28
REMARK   11  A    between atoms: _28  and  _29
REMARK   12  A    between atoms: _28  and  _31
REMARK   13  A    between atoms: _31  and  _32
REMARK   14  A    between atoms: _37  and  _39
REMARK   15  A    between atoms: _39  and  _40
REMARK   16  A    between atoms: _43  and  _45
REMARK   17  A    between atoms: _45  and  _46
REMARK   18  A    between atoms: _45  and  _48
REMARK   19  A    between atoms: _48  and  _49
REMARK   20  A    between atoms: _55  and  _57
REMARK   21  A    between atoms: _57  and  _58
REMARK   22  A    between atoms: _57  and  _60
REMARK   23  A    between atoms: _60  and  _61
REMARK   24  A    between atoms: _71  and  _73
REMARK   25  A    between atoms: _73  and  _74
REMARK   26  A    between atoms: _73  and  _76
REMARK   27  A    between atoms: _76  and  _77
REMARK   28  A    between atoms: _77  and  _78
REMARK   29  A    between atoms: _80  and  _82
REMARK   30  A    between atoms: _82  and  _83
REMARK   31  A    between atoms: _82  and  _85
REMARK   32  A    between atoms: _88  and  _90
REMARK   33  A    between atoms: _90  and  _91
REMARK   34  A    between atoms: _90  and  _93
REMARK   35  A    between atoms: _93  and  _94
REMARK   36  A    between atoms: _99  and  _100
REMARK   37  A    between atoms: _102  and  _104
REMARK   38  A    between atoms: _104  and  _105
REMARK   39  A    between atoms: _107  and  _109
REMARK   40  A    between atoms: _109  and  _110
REMARK   41  A    between atoms: _109  and  _112
REMARK   42  A    between atoms: _112  and  _113
REMARK   43  A    between atoms: _116  and  _118
REMARK   44  A    between atoms: _118  and  _119
REMARK   45  A    between atoms: _118  and  _121
REMARK   46  A    between atoms: _121  and  _122
REMARK   47  A    between atoms: _128  and  _130
REMARK   48  A    between atoms: _130  and  _131
REMARK   49  A    between atoms: _130  and  _133
REMARK   50  A    between atoms: _133  and  _134
REMARK   51  A    between atoms: _137  and  _139
REMARK   52  A    between atoms: _139  and  _140
REMARK   53  A    between atoms: _142  and  _144
REMARK   54  A    between atoms: _144  and  _145
REMARK   55  A    between atoms: _144  and  _147
REMARK   56  A    between atoms: _147  and  _148
REMARK   57  A    between atoms: _151  and  _153
REMARK   58  A    between atoms: _153  and  _154
REMARK   59  A    between atoms: _153  and  _156
REMARK   60  A    between atoms: _159  and  _161
REMARK   61  A    between atoms: _161  and  _162
REMARK   62  A    between atoms: _161  and  _164
REMARK   63  A    between atoms: _167  and  _169
REMARK   64  A    between atoms: _169  and  _170
REMARK   65  A    between atoms: _173  and  _175
REMARK   66  A    between atoms: _175  and  _176
REMARK   67  A    between atoms: _175  and  _178
REMARK   68  A    between atoms: _178  and  _179
REMARK   69  A    between atoms: _183  and  ZN_369
REMARK   70  A    between atoms: _184  and  _186
REMARK   71  A    between atoms: _186  and  _187
REMARK   72  A    between atoms: _186  and  _189
REMARK   73  A    between atoms: _189  and  _190
REMARK   74  A    between atoms: _190  and  _191
REMARK   75  A    between atoms: _194  and  _196
REMARK   76  A    between atoms: _196  and  _197
REMARK   77  A    between atoms: _196  and  _199
REMARK   78  A    between atoms: _199  and  _200
REMARK   79  A    between atoms: _203  and  _205
REMARK   80  A    between atoms: _205  and  _206
REMARK   81  A    between atoms: _205  and  _208
REMARK   82  A    between atoms: _208  and  _209
REMARK   83  A    between atoms: _213  and  ZN_369
REMARK   84  A    between atoms: _214  and  _216
REMARK   85  A    between atoms: _216  and  _217
REMARK   86  A    between atoms: _216  and  _219
REMARK   87  A    between atoms: _219  and  _220
REMARK   88  A    between atoms: _225  and  _226
REMARK   89  A    between atoms: _228  and  _230
REMARK   90  A    between atoms: _230  and  _231
REMARK   91  A    between atoms: _230  and  _233
REMARK   92  A    between atoms: _233  and  _234
REMARK   93  A    between atoms: _239  and  _241
REMARK   94  A    between atoms: _241  and  _242
REMARK   95  A    between atoms: _241  and  _244
REMARK   96  A    between atoms: _244  and  _245
REMARK   97  A    between atoms: _245  and  _246
REMARK   98  A    between atoms: _246  and  _248
REMARK   99  A    between atoms: _248  and  ZN_369
REMARK  100  A    between atoms: _249  and  _251
REMARK  101  A    between atoms: _251  and  _252
REMARK  102  A    between atoms: _251  and  _254
REMARK  103  A    between atoms: _254  and  _255
REMARK  104  A    between atoms: _257  and  _259
REMARK  105  A    between atoms: _259  and  _260
REMARK  106  A    between atoms: _259  and  _262
REMARK  107  A    between atoms: _262  and  _263
REMARK  108  A    between atoms: _266  and  _268
REMARK  109  A    between atoms: _268  and  _269
REMARK  110  A    between atoms: _271  and  _273
REMARK  111  A    between atoms: _273  and  _274
REMARK  112  A    between atoms: _273  and  _276
REMARK  113  A    between atoms: _276  and  _277
REMARK  114  A    between atoms: _280  and  _282
REMARK  115  A    between atoms: _282  and  _283
REMARK  116  A    between atoms: _285  and  _287
REMARK  117  A    between atoms: _287  and  _288
REMARK  118  A    between atoms: _287  and  _290
REMARK  119  A    between atoms: _293  and  _295
REMARK  120  A    between atoms: _295  and  _296
REMARK  121  A    between atoms: _295  and  _298
REMARK  122  A    between atoms: _298  and  _299
REMARK  123  A    between atoms: _304  and  _305
REMARK  124  A    between atoms: _307  and  _309
REMARK  125  A    between atoms: _309  and  _310
REMARK  126  A    between atoms: _309  and  _312
REMARK  127  A    between atoms: _312  and  _313
REMARK  128  A    between atoms: _316  and  _318
REMARK  129  A    between atoms: _318  and  _319
REMARK  130  A    between atoms: _318  and  _321
REMARK  131  A    between atoms: _321  and  _322
REMARK  132  A    between atoms: _322  and  _323
REMARK  133  A    between atoms: _323  and  _324
REMARK  134  A    between atoms: _333  and  _335
REMARK  135  A    between atoms: _335  and  _336
REMARK  136  A    between atoms: _335  and  _338
REMARK  137  A    between atoms: _338  and  _339
REMARK  138  A    between atoms: _342  and  _344
REMARK  139  A    between atoms: _344  and  _345
REMARK  140  A    between atoms: _344  and  _347
REMARK  141  A    between atoms: _350  and  _352
REMARK  142  A    between atoms: _352  and  _353
REMARK  143  A    between atoms: _352  and  _355
REMARK  144  A    between atoms: _355  and  _356
REMARK  145  A    between atoms: _361  and  _363
REMARK  146  A    between atoms: _363  and  _364
REMARK  147  A    between atoms: _363  and  _366
REMARK  148  A    between atoms: _366  and  _367
REMARK                            x       y       z     vdW  Elec       q    Type
REMARK                         _______ _______ _______ _____ _____    ______ ____
ROOT
ATOM      1  C   SER A   1      38.642  49.839  -5.306  0.00  0.00    +0.241 C 
ATOM      2  O   SER A   1      38.141  50.246  -4.254  0.00  0.00    -0.274 OA
ATOM      3  N   ASP A   2      39.890  49.362  -5.367  0.00  0.00    -0.298 N 
ATOM      4  H   ASP A   2      40.294  49.009  -6.258  0.00  0.00    +0.150 HD
ENDROOT
BRANCH   1   5
ATOM      5  CA  SER A   1      37.831  49.877  -6.603  0.00  0.00    +0.174 C 
BRANCH   5   6
ATOM      6  N   SER A   1      38.652  50.197  -7.762  0.00  0.00    -0.236 NA
ATOM      7  H   SER A   1      38.788  49.479  -8.502  0.00  0.00    +0.142 HD
ENDBRANCH   5   6
BRANCH   5   8
ATOM      8  CB  SER A   1      37.109  48.535  -6.762  0.00  0.00    +0.163 C 
BRANCH   8   9
ATOM      9  OG  SER A   1      35.915  48.746  -7.509  0.00  0.00    -0.380 OA
ATOM     10  H   SER A   1      36.145  49.113  -8.399  0.00  0.00    +0.211 HD
ENDBRANCH   8   9
ENDBRANCH   5   8
ENDBRANCH   1   5
BRANCH   3  11
ATOM     11  CA  ASP A   2      40.666  49.359  -4.114  0.00  0.00    +0.148 C 
BRANCH  11  12
ATOM     12  C   ASP A   2      41.073  50.779  -3.749  0.00  0.00    +0.227 C 
ATOM     13  O   ASP A   2      41.136  51.184  -2.587  0.00  0.00    -0.286 OA
ENDBRANCH  11  12
BRANCH  11  14
ATOM     14  CB  ASP A   2      41.912  48.481  -4.236  0.00  0.00    +0.142 C 
BRANCH  14  15
ATOM     15  CG  ASP A   2      41.641  46.992  -4.186  0.00  0.00    +0.367 C 
ATOM     16  OD2 ASP A   2      40.532  46.605  -3.751  0.00  0.00    -0.246 OA
ATOM     17  OD1 ASP A   2      42.539  46.202  -4.593  0.00  0.00    -0.246 OA
ENDBRANCH  14  15
ENDBRANCH  11  14
ENDBRANCH   3  11
TORSDOF 8
REMARK  Name = ../refined-set-2016/3fcq/3fcq_pocket.pdb
REMARK  148 active torsions:
REMARK  status: ('A' for Active; 'I' for Inactive)
REMARK    1  A    between atoms: _1  and  _3
REMARK    2  A    between atoms: _3  and  _4
REMARK    3  A    between atoms: _3  and  _6
REMARK    4  A    between atoms: _6  and  _7
REMARK    5  A    between atoms: _12  and  _13
REMARK    6  A    between atoms: _15  and  _17
REMARK    7  A    between atoms: _17  and  _18
REMARK    8  A    between atoms: _17  and  _20
REMARK    9  A    between atoms: _20  and  _21
REMARK   10  A    between atoms: _26  and  _28
REMARK   11  A    between atoms: _28  and  _29
REMARK   12  A    between atoms: _28  and  _31
REMARK   13  A    between atoms: _31  and  _32
REMARK   14  A    between atoms: _37  and  _39
REMARK   15  A    between atoms: _39  and  _40
REMARK   16  A    between atoms: _43  and  _45
REMARK   17  A    between atoms: _45  and  _46
REMARK   18  A    between atoms: _45  and  _48
REMARK   19  A    between atoms: _48  and  _49
REMARK   20  A    between atoms: _55  and  _57
REMARK   21  A    between atoms: _57  and  _58
REMARK   22  A    between atoms: _57  and  _60
REMARK   23  A    between atoms: _60  and  _61
REMARK   24  A    between atoms: _71  and  _73
REMARK   25  A    between atoms: _73  and  _74
REMARK   26  A    between atoms: _73  and  _76
REMARK   27  A    between atoms: _76  and  _77
REMARK   28  A    between atoms: _77  and  _78
REMARK   29  A    between atoms: _80  and  _82
REMARK   30  A    between atoms: _82  and  _83
REMARK   31  A    between atoms: _82  and  _85
REMARK   32  A    between atoms: _88  and  _90
REMARK   33  A    between atoms: _90  and  _91
REMARK   34  A    between atoms: _90  and  _93
REMARK   35  A    between atoms: _93  and  _94
REMARK   36  A    between atoms: _99  and  _100
REMARK   37  A    between atoms: _102  and  _104
REMARK   38  A    between atoms: _104  and  _105
REMARK   39  A    between atoms: _107  and  _109
REMARK   40  A    between atoms: _109  and  _110
REMARK   41  A    between atoms: _109  and  _112
REMARK   42  A    between atoms: _112  and  _113
REMARK   43  A    between atoms: _116  and  _118
REMARK   44  A    between atoms: _118  and  _119
REMARK   45  A    between atoms: _118  and  _121
REMARK   46  A    between atoms: _121  and  _122
REMARK   47  A    between atoms: _128  and  _130
REMARK   48  A    between atoms: _130  and  _131
REMARK   49  A    between atoms: _130  and  _133
REMARK   50  A    between atoms: _133  and  _134
REMARK   51  A    between atoms: _137  and  _139
REMARK   52  A    between atoms: _139  and  _140
REMARK   53  A    between atoms: _142  and  _144
REMARK   54  A    between atoms: _144  and  _145
REMARK   55  A    between atoms: _144  and  _147
REMARK   56  A    between atoms: _147  and  _148
REMARK   57  A    between atoms: _151  and  _153
REMARK   58  A    between atoms: _153  and  _154
REMARK   59  A    between atoms: _153  and  _156
REMARK   60  A    between atoms: _159  and  _161
REMARK   61  A    between atoms: _161  and  _162
REMARK   62  A    between atoms: _161  and  _164
REMARK   63  A    between atoms: _167  and  _169
REMARK   64  A    between atoms: _169  and  _170
REMARK   65  A    between atoms: _173  and  _175
REMARK   66  A    between atoms: _175  and  _176
REMARK   67  A    between atoms: _175  and  _178
REMARK   68  A    between atoms: _178  and  _179
REMARK   69  A    between atoms: _183  and  ZN_369
REMARK   70  A    between atoms: _184  and  _186
REMARK   71  A    between atoms: _186  and  _187
REMARK   72  A    between atoms: _186  and  _189
REMARK   73  A    between atoms: _189  and  _190
REMARK   74  A    between atoms: _190  and  _191
REMARK   75  A    between atoms: _194  and  _196
REMARK   76  A    between atoms: _196  and  _197
REMARK   77  A    between atoms: _196  and  _199
REMARK   78  A    between atoms: _199  and  _200
REMARK   79  A    between atoms: _203  and  _205
REMARK   80  A    between atoms: _205  and  _206
REMARK   81  A    between atoms: _205  and  _208
REMARK   82  A    between atoms: _208  and  _209
REMARK   83  A    between atoms: _213  and  ZN_369
REMARK   84  A    between atoms: _214  and  _216
REMARK   85  A    between atoms: _216  and  _217
REMARK   86  A    between atoms: _216  and  _219
REMARK   87  A    between atoms: _219  and  _220
REMARK   88  A    between atoms: _225  and  _226
REMARK   89  A    between atoms: _228  and  _230
REMARK   90  A    between atoms: _230  and  _231
REMARK   91  A    between atoms: _230  and  _233
REMARK   92  A    between atoms: _233  and  _234
REMARK   93  A    between atoms: _239  and  _241
REMARK   94  A    between atoms: _241  and  _242
REMARK   95  A    between atoms: _241  and  _244
REMARK   96  A    between atoms: _244  and  _245
REMARK   97  A    between atoms: _245  and  _246
REMARK   98  A    between atoms: _246  and  _248
REMARK   99  A    between atoms: _248  and  ZN_369
REMARK  100  A    between atoms: _249  and  _251
REMARK  101  A    between atoms: _251  and  _252
REMARK  102  A    between atoms: _251  and  _254
REMARK  103  A    between atoms: _254  and  _255
REMARK  104  A    between atoms: _257  and  _259
REMARK  105  A    between atoms: _259  and  _260
REMARK  106  A    between atoms: _259  and  _262
REMARK  107  A    between atoms: _262  and  _263
REMARK  108  A    between atoms: _266  and  _268
REMARK  109  A    between atoms: _268  and  _269
REMARK  110  A    between atoms: _271  and  _273
REMARK  111  A    between atoms: _273  and  _274
REMARK  112  A    between atoms: _273  and  _276
REMARK  113  A    between atoms: _276  and  _277
REMARK  114  A    between atoms: _280  and  _282
REMARK  115  A    between atoms: _282  and  _283
REMARK  116  A    between atoms: _285  and  _287
REMARK  117  A    between atoms: _287  and  _288
REMARK  118  A    between atoms: _287  and  _290
REMARK  119  A    between atoms: _293  and  _295
REMARK  120  A    between atoms: _295  and  _296
REMARK  121  A    between atoms: _295  and  _298
REMARK  122  A    between atoms: _298  and  _299
REMARK  123  A    between atoms: _304  and  _305
REMARK  124  A    between atoms: _307  and  _309
REMARK  125  A    between atoms: _309  and  _310
REMARK  126  A    between atoms: _309  and  _312
REMARK  127  A    between atoms: _312  and  _313
REMARK  128  A    between atoms: _316  and  _318
REMARK  129  A    between atoms: _318  and  _319
REMARK  130  A    between atoms: _318  and  _321
REMARK  131  A    between atoms: _321  and  _322
REMARK  132  A    between atoms: _322  and  _323
REMARK  133  A    between atoms: _323  and  _324
REMARK  134  A    between atoms: _333  and  _335
REMARK  135  A    between atoms: _335  and  _336
REMARK  136  A    between atoms: _335  and  _338
REMARK  137  A    between atoms: _338  and  _339
REMARK  138  A    between atoms: _342  and  _344
REMARK  139  A    between atoms: _344  and  _345
REMARK  140  A    between atoms: _344  and  _347
REMARK  141  A    between atoms: _350  and  _352
REMARK  142  A    between atoms: _352  and  _353
REMARK  143  A    between atoms: _352  and  _355
REMARK  144  A    between atoms: _355  and  _356
REMARK  145  A    between atoms: _361  and  _363
REMARK  146  A    between atoms: _363  and  _364
REMARK  147  A    between atoms: _363  and  _366
REMARK  148  A    between atoms: _366  and  _367
REMARK                            x       y       z     vdW  Elec       q    Type
REMARK                         _______ _______ _______ _____ _____    ______ ____
ROOT
ATOM      1  CA  GLY A   1      37.451  52.013  -1.312  0.00  0.00    +0.156 C 
ENDROOT
BRANCH   1   2
ATOM      2  N   GLY A   1      37.923  52.580  -2.588  0.00  0.00    -0.238 NA
ATOM      3  H   GLY A   1      38.276  51.975  -3.357  0.00  0.00    +0.142 HD
ENDBRANCH   1   2
BRANCH   1   4
ATOM      4  C   GLY A   1      38.378  52.530  -0.207  0.00  0.00    +0.226 C 
ATOM      5  O   GLY A   1      37.936  52.876   0.875  0.00  0.00    -0.287 OA
ENDBRANCH   1   4
TORSDOF 2
REMARK  Name = ../refined-set-2016/3fcq/3fcq_pocket.pdb
REMARK  148 active torsions:
REMARK  status: ('A' for Active; 'I' for Inactive)
REMARK    1  A    between atoms: _1  and  _3
REMARK    2  A    between atoms: _3  and  _4
REMARK    3  A    between atoms: _3  and  _6
REMARK    4  A    between atoms: _6  and  _7
REMARK    5  A    between atoms: _12  and  _13
REMARK    6  A    between atoms: _15  and  _17
REMARK    7  A    between atoms: _17  and  _18
REMARK    8  A    between atoms: _17  and  _20
REMARK    9  A    between atoms: _20  and  _21
REMARK   10  A    between atoms: _26  and  _28
REMARK   11  A    between atoms: _28  and  _29
REMARK   12  A    between atoms: _28  and  _31
REMARK   13  A    between atoms: _31  and  _32
REMARK   14  A    between atoms: _37  and  _39
REMARK   15  A    between atoms: _39  and  _40
REMARK   16  A    between atoms: _43  and  _45
REMARK   17  A    between atoms: _45  and  _46
REMARK   18  A    between atoms: _45  and  _48
REMARK   19  A    between atoms: _48  and  _49
REMARK   20  A    between atoms: _55  and  _57
REMARK   21  A    between atoms: _57  and  _58
REMARK   22  A    between atoms: _57  and  _60
REMARK   23  A    between atoms: _60  and  _61
REMARK   24  A    between atoms: _71  and  _73
REMARK   25  A    between atoms: _73  and  _74
REMARK   26  A    between atoms: _73  and  _76
REMARK   27  A    between atoms: _76  and  _77
REMARK   28  A    between atoms: _77  and  _78
REMARK   29  A    between atoms: _80  and  _82
REMARK   30  A    between atoms: _82  and  _83
REMARK   31  A    between atoms: _82  and  _85
REMARK   32  A    between atoms: _88  and  _90
REMARK   33  A    between atoms: _90  and  _91
REMARK   34  A    between atoms: _90  and  _93
REMARK   35  A    between atoms: _93  and  _94
REMARK   36  A    between atoms: _99  and  _100
REMARK   37  A    between atoms: _102  and  _104
REMARK   38  A    between atoms: _104  and  _105
REMARK   39  A    between atoms: _107  and  _109
REMARK   40  A    between atoms: _109  and  _110
REMARK   41  A    between atoms: _109  and  _112
REMARK   42  A    between atoms: _112  and  _113
REMARK   43  A    between atoms: _116  and  _118
REMARK   44  A    between atoms: _118  and  _119
REMARK   45  A    between atoms: _118  and  _121
REMARK   46  A    between atoms: _121  and  _122
REMARK   47  A    between atoms: _128  and  _130
REMARK   48  A    between atoms: _130  and  _131
REMARK   49  A    between atoms: _130  and  _133
REMARK   50  A    between atoms: _133  and  _134
REMARK   51  A    between atoms: _137  and  _139
REMARK   52  A    between atoms: _139  and  _140
REMARK   53  A    between atoms: _142  and  _144
REMARK   54  A    between atoms: _144  and  _145
REMARK   55  A    between atoms: _144  and  _147
REMARK   56  A    between atoms: _147  and  _148
REMARK   57  A    between atoms: _151  and  _153
REMARK   58  A    between atoms: _153  and  _154
REMARK   59  A    between atoms: _153  and  _156
REMARK   60  A    between atoms: _159  and  _161
REMARK   61  A    between atoms: _161  and  _162
REMARK   62  A    between atoms: _161  and  _164
REMARK   63  A    between atoms: _167  and  _169
REMARK   64  A    between atoms: _169  and  _170
REMARK   65  A    between atoms: _173  and  _175
REMARK   66  A    between atoms: _175  and  _176
REMARK   67  A    between atoms: _175  and  _178
REMARK   68  A    between atoms: _178  and  _179
REMARK   69  A    between atoms: _183  and  ZN_369
REMARK   70  A    between atoms: _184  and  _186
REMARK   71  A    between atoms: _186  and  _187
REMARK   72  A    between atoms: _186  and  _189
REMARK   73  A    between atoms: _189  and  _190
REMARK   74  A    between atoms: _190  and  _191
REMARK   75  A    between atoms: _194  and  _196
REMARK   76  A    between atoms: _196  and  _197
REMARK   77  A    between atoms: _196  and  _199
REMARK   78  A    between atoms: _199  and  _200
REMARK   79  A    between atoms: _203  and  _205
REMARK   80  A    between atoms: _205  and  _206
REMARK   81  A    between atoms: _205  and  _208
REMARK   82  A    between atoms: _208  and  _209
REMARK   83  A    between atoms: _213  and  ZN_369
REMARK   84  A    between atoms: _214  and  _216
REMARK   85  A    between atoms: _216  and  _217
REMARK   86  A    between atoms: _216  and  _219
REMARK   87  A    between atoms: _219  and  _220
REMARK   88  A    between atoms: _225  and  _226
REMARK   89  A    between atoms: _228  and  _230
REMARK   90  A    between atoms: _230  and  _231
REMARK   91  A    between atoms: _230  and  _233
REMARK   92  A    between atoms: _233  and  _234
REMARK   93  A    between atoms: _239  and  _241
REMARK   94  A    between atoms: _241  and  _242
REMARK   95  A    between atoms: _241  and  _244
REMARK   96  A    between atoms: _244  and  _245
REMARK   97  A    between atoms: _245  and  _246
REMARK   98  A    between atoms: _246  and  _248
REMARK   99  A    between atoms: _248  and  ZN_369
REMARK  100  A    between atoms: _249  and  _251
REMARK  101  A    between atoms: _251  and  _252
REMARK  102  A    between atoms: _251  and  _254
REMARK  103  A    between atoms: _254  and  _255
REMARK  104  A    between atoms: _257  and  _259
REMARK  105  A    between atoms: _259  and  _260
REMARK  106  A    between atoms: _259  and  _262
REMARK  107  A    between atoms: _262  and  _263
REMARK  108  A    between atoms: _266  and  _268
REMARK  109  A    between atoms: _268  and  _269
REMARK  110  A    between atoms: _271  and  _273
REMARK  111  A    between atoms: _273  and  _274
REMARK  112  A    between atoms: _273  and  _276
REMARK  113  A    between atoms: _276  and  _277
REMARK  114  A    between atoms: _280  and  _282
REMARK  115  A    between atoms: _282  and  _283
REMARK  116  A    between atoms: _285  and  _287
REMARK  117  A    between atoms: _287  and  _288
REMARK  118  A    between atoms: _287  and  _290
REMARK  119  A    between atoms: _293  and  _295
REMARK  120  A    between atoms: _295  and  _296
REMARK  121  A    between atoms: _295  and  _298
REMARK  122  A    between atoms: _298  and  _299
REMARK  123  A    between atoms: _304  and  _305
REMARK  124  A    between atoms: _307  and  _309
REMARK  125  A    between atoms: _309  and  _310
REMARK  126  A    between atoms: _309  and  _312
REMARK  127  A    between atoms: _312  and  _313
REMARK  128  A    between atoms: _316  and  _318
REMARK  129  A    between atoms: _318  and  _319
REMARK  130  A    between atoms: _318  and  _321
REMARK  131  A    between atoms: _321  and  _322
REMARK  132  A    between atoms: _322  and  _323
REMARK  133  A    between atoms: _323  and  _324
REMARK  134  A    between atoms: _333  and  _335
REMARK  135  A    between atoms: _335  and  _336
REMARK  136  A    between atoms: _335  and  _338
REMARK  137  A    between atoms: _338  and  _339
REMARK  138  A    between atoms: _342  and  _344
REMARK  139  A    between atoms: _344  and  _345
REMARK  140  A    between atoms: _344  and  _347
REMARK  141  A    between atoms: _350  and  _352
REMARK  142  A    between atoms: _352  and  _353
REMARK  143  A    between atoms: _352  and  _355
REMARK  144  A    between atoms: _355  and  _356
REMARK  145  A    between atoms: _361  and  _363
REMARK  146  A    between atoms: _363  and  _364
REMARK  147  A    between atoms: _363  and  _366
REMARK  148  A    between atoms: _366  and  _367
REMARK                            x       y       z     vdW  Elec       q    Type
REMARK                         _______ _______ _______ _____ _____    ______ ____
ROOT
ATOM      1  CA  ILE A   1      41.973  46.084   1.882  0.00  0.00    +0.145 C 
ENDROOT
BRANCH   1   2
ATOM      2  C   ILE A   1      41.354  44.951   2.695  0.00  0.00    +0.238 C 
ATOM      3  N   GLY A   2      40.236  45.250   3.358  0.00  0.00    -0.297 N 
ATOM      4  H   GLY A   2      39.926  46.239   3.444  0.00  0.00    +0.150 HD
ATOM      5  O   ILE A   1      41.907  43.839   2.687  0.00  0.00    -0.274 OA
BRANCH   3   6
ATOM      6  CA  GLY A   2      39.457  44.184   3.958  0.00  0.00    +0.163 C 
BRANCH   6   7
ATOM      7  C   GLY A   2      39.903  43.791   5.353  0.00  0.00    +0.229 C 
ATOM      8  O   GLY A   2      39.357  42.829   5.905  0.00  0.00    -0.286 OA
ENDBRANCH   6   7
ENDBRANCH   3   6
ENDBRANCH   1   2
BRANCH   1   9
ATOM      9  N   ILE A   1      43.336  46.338   2.346  0.00  0.00    -0.238 NA
ATOM     10  H   ILE A   1      44.068  45.606   2.242  0.00  0.00    +0.142 HD
ENDBRANCH   1   9
BRANCH   1  11
ATOM     11  CB  ILE A   1      41.901  45.677   0.395  0.00  0.00    +0.025 C 
ATOM     12  CG2 ILE A   1      40.452  45.381   0.004  0.00  0.00    +0.002 C 
BRANCH  11  13
ATOM     13  CG1 ILE A   1      42.568  46.669  -0.557  0.00  0.00    +0.002 C 
ATOM     14  CD1 ILE A   1      41.893  48.028  -0.633  0.00  0.00    +0.000 C 
ENDBRANCH  11  13
ENDBRANCH   1  11
TORSDOF 6
REMARK  Name = ../refined-set-2016/3fcq/3fcq_pocket.pdb
REMARK  148 active torsions:
REMARK  status: ('A' for Active; 'I' for Inactive)
REMARK    1  A    between atoms: _1  and  _3
REMARK    2  A    between atoms: _3  and  _4
REMARK    3  A    between atoms: _3  and  _6
REMARK    4  A    between atoms: _6  and  _7
REMARK    5  A    between atoms: _12  and  _13
REMARK    6  A    between atoms: _15  and  _17
REMARK    7  A    between atoms: _17  and  _18
REMARK    8  A    between atoms: _17  and  _20
REMARK    9  A    between atoms: _20  and  _21
REMARK   10  A    between atoms: _26  and  _28
REMARK   11  A    between atoms: _28  and  _29
REMARK   12  A    between atoms: _28  and  _31
REMARK   13  A    between atoms: _31  and  _32
REMARK   14  A    between atoms: _37  and  _39
REMARK   15  A    between atoms: _39  and  _40
REMARK   16  A    between atoms: _43  and  _45
REMARK   17  A    between atoms: _45  and  _46
REMARK   18  A    between atoms: _45  and  _48
REMARK   19  A    between atoms: _48  and  _49
REMARK   20  A    between atoms: _55  and  _57
REMARK   21  A    between atoms: _57  and  _58
REMARK   22  A    between atoms: _57  and  _60
REMARK   23  A    between atoms: _60  and  _61
REMARK   24  A    between atoms: _71  and  _73
REMARK   25  A    between atoms: _73  and  _74
REMARK   26  A    between atoms: _73  and  _76
REMARK   27  A    between atoms: _76  and  _77
REMARK   28  A    between atoms: _77  and  _78
REMARK   29  A    between atoms: _80  and  _82
REMARK   30  A    between atoms: _82  and  _83
REMARK   31  A    between atoms: _82  and  _85
REMARK   32  A    between atoms: _88  and  _90
REMARK   33  A    between atoms: _90  and  _91
REMARK   34  A    between atoms: _90  and  _93
REMARK   35  A    between atoms: _93  and  _94
REMARK   36  A    between atoms: _99  and  _100
REMARK   37  A    between atoms: _102  and  _104
REMARK   38  A    between atoms: _104  and  _105
REMARK   39  A    between atoms: _107  and  _109
REMARK   40  A    between atoms: _109  and  _110
REMARK   41  A    between atoms: _109  and  _112
REMARK   42  A    between atoms: _112  and  _113
REMARK   43  A    between atoms: _116  and  _118
REMARK   44  A    between atoms: _118  and  _119
REMARK   45  A    between atoms: _118  and  _121
REMARK   46  A    between atoms: _121  and  _122
REMARK   47  A    between atoms: _128  and  _130
REMARK   48  A    between atoms: _130  and  _131
REMARK   49  A    between atoms: _130  and  _133
REMARK   50  A    between atoms: _133  and  _134
REMARK   51  A    between atoms: _137  and  _139
REMARK   52  A    between atoms: _139  and  _140
REMARK   53  A    between atoms: _142  and  _144
REMARK   54  A    between atoms: _144  and  _145
REMARK   55  A    between atoms: _144  and  _147
REMARK   56  A    between atoms: _147  and  _148
REMARK   57  A    between atoms: _151  and  _153
REMARK   58  A    between atoms: _153  and  _154
REMARK   59  A    between atoms: _153  and  _156
REMARK   60  A    between atoms: _159  and  _161
REMARK   61  A    between atoms: _161  and  _162
REMARK   62  A    between atoms: _161  and  _164
REMARK   63  A    between atoms: _167  and  _169
REMARK   64  A    between atoms: _169  and  _170
REMARK   65  A    between atoms: _173  and  _175
REMARK   66  A    between atoms: _175  and  _176
REMARK   67  A    between atoms: _175  and  _178
REMARK   68  A    between atoms: _178  and  _179
REMARK   69  A    between atoms: _183  and  ZN_369
REMARK   70  A    between atoms: _184  and  _186
REMARK   71  A    between atoms: _186  and  _187
REMARK   72  A    between atoms: _186  and  _189
REMARK   73  A    between atoms: _189  and  _190
REMARK   74  A    between atoms: _190  and  _191
REMARK   75  A    between atoms: _194  and  _196
REMARK   76  A    between atoms: _196  and  _197
REMARK   77  A    between atoms: _196  and  _199
REMARK   78  A    between atoms: _199  and  _200
REMARK   79  A    between atoms: _203  and  _205
REMARK   80  A    between atoms: _205  and  _206
REMARK   81  A    between atoms: _205  and  _208
REMARK   82  A    between atoms: _208  and  _209
REMARK   83  A    between atoms: _213  and  ZN_369
REMARK   84  A    between atoms: _214  and  _216
REMARK   85  A    between atoms: _216  and  _217
REMARK   86  A    between atoms: _216  and  _219
REMARK   87  A    between atoms: _219  and  _220
REMARK   88  A    between atoms: _225  and  _226
REMARK   89  A    between atoms: _228  and  _230
REMARK   90  A    between atoms: _230  and  _231
REMARK   91  A    between atoms: _230  and  _233
REMARK   92  A    between atoms: _233  and  _234
REMARK   93  A    between atoms: _239  and  _241
REMARK   94  A    between atoms: _241  and  _242
REMARK   95  A    between atoms: _241  and  _244
REMARK   96  A    between atoms: _244  and  _245
REMARK   97  A    between atoms: _245  and  _246
REMARK   98  A    between atoms: _246  and  _248
REMARK   99  A    between atoms: _248  and  ZN_369
REMARK  100  A    between atoms: _249  and  _251
REMARK  101  A    between atoms: _251  and  _252
REMARK  102  A    between atoms: _251  and  _254
REMARK  103  A    between atoms: _254  and  _255
REMARK  104  A    between atoms: _257  and  _259
REMARK  105  A    between atoms: _259  and  _260
REMARK  106  A    between atoms: _259  and  _262
REMARK  107  A    between atoms: _262  and  _263
REMARK  108  A    between atoms: _266  and  _268
REMARK  109  A    between atoms: _268  and  _269
REMARK  110  A    between atoms: _271  and  _273
REMARK  111  A    between atoms: _273  and  _274
REMARK  112  A    between atoms: _273  and  _276
REMARK  113  A    between atoms: _276  and  _277
REMARK  114  A    between atoms: _280  and  _282
REMARK  115  A    between atoms: _282  and  _283
REMARK  116  A    between atoms: _285  and  _287
REMARK  117  A    between atoms: _287  and  _288
REMARK  118  A    between atoms: _287  and  _290
REMARK  119  A    between atoms: _293  and  _295
REMARK  120  A    between atoms: _295  and  _296
REMARK  121  A    between atoms: _295  and  _298
REMARK  122  A    between atoms: _298  and  _299
REMARK  123  A    between atoms: _304  and  _305
REMARK  124  A    between atoms: _307  and  _309
REMARK  125  A    between atoms: _309  and  _310
REMARK  126  A    between atoms: _309  and  _312
REMARK  127  A    between atoms: _312  and  _313
REMARK  128  A    between atoms: _316  and  _318
REMARK  129  A    between atoms: _318  and  _319
REMARK  130  A    between atoms: _318  and  _321
REMARK  131  A    between atoms: _321  and  _322
REMARK  132  A    between atoms: _322  and  _323
REMARK  133  A    between atoms: _323  and  _324
REMARK  134  A    between atoms: _333  and  _335
REMARK  135  A    between atoms: _335  and  _336
REMARK  136  A    between atoms: _335  and  _338
REMARK  137  A    between atoms: _338  and  _339
REMARK  138  A    between atoms: _342  and  _344
REMARK  139  A    between atoms: _344  and  _345
REMARK  140  A    between atoms: _344  and  _347
REMARK  141  A    between atoms: _350  and  _352
REMARK  142  A    between atoms: _352  and  _353
REMARK  143  A    between atoms: _352  and  _355
REMARK  144  A    between atoms: _355  and  _356
REMARK  145  A    between atoms: _361  and  _363
REMARK  146  A    between atoms: _363  and  _364
REMARK  147  A    between atoms: _363  and  _366
REMARK  148  A    between atoms: _366  and  _367
REMARK                            x       y       z     vdW  Elec       q    Type
REMARK                         _______ _______ _______ _____ _____    ______ ____
ROOT
ATOM      1  CA  TYR A   2      39.345  39.241   7.152  0.00  0.00    +0.141 C 
ENDROOT
BRANCH   1   4
ATOM      2  C   VAL A   1      37.261  40.297   7.813  0.00  0.00    +0.238 C 
ATOM      3  O   VAL A   1      36.662  39.218   7.806  0.00  0.00    -0.274 OA
ATOM      4  N   TYR A   2      38.551  40.402   7.526  0.00  0.00    -0.298 N 
ATOM      5  H   TYR A   2      39.006  41.336   7.569  0.00  0.00    +0.150 HD
BRANCH   2   6
ATOM      6  CA  VAL A   1      36.512  41.574   8.167  0.00  0.00    +0.145 C 
BRANCH   6   7
ATOM      7  CB  VAL A   1      35.356  41.779   7.151  0.00  0.00    +0.025 C 
ATOM      8  CG2 VAL A   1      34.361  42.784   7.732  0.00  0.00    +0.002 C 
ATOM      9  CG1 VAL A   1      35.847  42.241   5.801  0.00  0.00    +0.002 C 
ENDBRANCH   6   7
BRANCH   6  10
ATOM     10  N   VAL A   1      37.384  42.738   8.245  0.00  0.00    -0.238 NA
ATOM     11  H   VAL A   1      37.964  43.004   7.424  0.00  0.00    +0.142 HD
ENDBRANCH   6  10
ENDBRANCH   2   6
ENDBRANCH   1   4
BRANCH   1  12
ATOM     12  C   TYR A   2      39.970  38.527   8.352  0.00  0.00    +0.227 C 
ATOM     13  O   TYR A   2      40.504  39.224   9.213  0.00  0.00    -0.286 OA
ENDBRANCH   1  12
BRANCH   1  14
ATOM     14  CB  TYR A   2      40.445  39.730   6.213  0.00  0.00    +0.054 C 
BRANCH  14  15
ATOM     15  CG  TYR A   2      41.210  38.624   5.519  0.00  0.00    -0.020 A 
ATOM     16  CD2 TYR A   2      42.568  38.463   5.794  0.00  0.00    -0.001 A 
ATOM     17  CE2 TYR A   2      43.293  37.470   5.176  0.00  0.00    +0.036 A 
ATOM     18  CZ  TYR A   2      42.681  36.625   4.279  0.00  0.00    +0.134 A 
ATOM     19  CE1 TYR A   2      41.340  36.765   3.989  0.00  0.00    +0.036 A 
ATOM     20  CD1 TYR A   2      40.611  37.771   4.615  0.00  0.00    -0.001 A 
BRANCH  18  21
ATOM     21  OH  TYR A   2      43.436  35.637   3.677  0.00  0.00    -0.506 OA
ATOM     22  HH  TYR A   2      44.175  36.053   3.167  0.00  0.00    +0.292 HD
ENDBRANCH  18  21
ENDBRANCH  14  15
ENDBRANCH   1  14
TORSDOF 8
REMARK  Name = ../refined-set-2016/3fcq/3fcq_pocket.pdb
REMARK  148 active torsions:
REMARK  status: ('A' for Active; 'I' for Inactive)
REMARK    1  A    between atoms: _1  and  _3
REMARK    2  A    between atoms: _3  and  _4
REMARK    3  A    between atoms: _3  and  _6
REMARK    4  A    between atoms: _6  and  _7
REMARK    5  A    between atoms: _12  and  _13
REMARK    6  A    between atoms: _15  and  _17
REMARK    7  A    between atoms: _17  and  _18
REMARK    8  A    between atoms: _17  and  _20
REMARK    9  A    between atoms: _20  and  _21
REMARK   10  A    between atoms: _26  and  _28
REMARK   11  A    between atoms: _28  and  _29
REMARK   12  A    between atoms: _28  and  _31
REMARK   13  A    between atoms: _31  and  _32
REMARK   14  A    between atoms: _37  and  _39
REMARK   15  A    between atoms: _39  and  _40
REMARK   16  A    between atoms: _43  and  _45
REMARK   17  A    between atoms: _45  and  _46
REMARK   18  A    between atoms: _45  and  _48
REMARK   19  A    between atoms: _48  and  _49
REMARK   20  A    between atoms: _55  and  _57
REMARK   21  A    between atoms: _57  and  _58
REMARK   22  A    between atoms: _57  and  _60
REMARK   23  A    between atoms: _60  and  _61
REMARK   24  A    between atoms: _71  and  _73
REMARK   25  A    between atoms: _73  and  _74
REMARK   26  A    between atoms: _73  and  _76
REMARK   27  A    between atoms: _76  and  _77
REMARK   28  A    between atoms: _77  and  _78
REMARK   29  A    between atoms: _80  and  _82
REMARK   30  A    between atoms: _82  and  _83
REMARK   31  A    between atoms: _82  and  _85
REMARK   32  A    between atoms: _88  and  _90
REMARK   33  A    between atoms: _90  and  _91
REMARK   34  A    between atoms: _90  and  _93
REMARK   35  A    between atoms: _93  and  _94
REMARK   36  A    between atoms: _99  and  _100
REMARK   37  A    between atoms: _102  and  _104
REMARK   38  A    between atoms: _104  and  _105
REMARK   39  A    between atoms: _107  and  _109
REMARK   40  A    between atoms: _109  and  _110
REMARK   41  A    between atoms: _109  and  _112
REMARK   42  A    between atoms: _112  and  _113
REMARK   43  A    between atoms: _116  and  _118
REMARK   44  A    between atoms: _118  and  _119
REMARK   45  A    between atoms: _118  and  _121
REMARK   46  A    between atoms: _121  and  _122
REMARK   47  A    between atoms: _128  and  _130
REMARK   48  A    between atoms: _130  and  _131
REMARK   49  A    between atoms: _130  and  _133
REMARK   50  A    between atoms: _133  and  _134
REMARK   51  A    between atoms: _137  and  _139
REMARK   52  A    between atoms: _139  and  _140
REMARK   53  A    between atoms: _142  and  _144
REMARK   54  A    between atoms: _144  and  _145
REMARK   55  A    between atoms: _144  and  _147
REMARK   56  A    between atoms: _147  and  _148
REMARK   57  A    between atoms: _151  and  _153
REMARK   58  A    between atoms: _153  and  _154
REMARK   59  A    between atoms: _153  and  _156
REMARK   60  A    between atoms: _159  and  _161
REMARK   61  A    between atoms: _161  and  _162
REMARK   62  A    between atoms: _161  and  _164
REMARK   63  A    between atoms: _167  and  _169
REMARK   64  A    between atoms: _169  and  _170
REMARK   65  A    between atoms: _173  and  _175
REMARK   66  A    between atoms: _175  and  _176
REMARK   67  A    between atoms: _175  and  _178
REMARK   68  A    between atoms: _178  and  _179
REMARK   69  A    between atoms: _183  and  ZN_369
REMARK   70  A    between atoms: _184  and  _186
REMARK   71  A    between atoms: _186  and  _187
REMARK   72  A    between atoms: _186  and  _189
REMARK   73  A    between atoms: _189  and  _190
REMARK   74  A    between atoms: _190  and  _191
REMARK   75  A    between atoms: _194  and  _196
REMARK   76  A    between atoms: _196  and  _197
REMARK   77  A    between atoms: _196  and  _199
REMARK   78  A    between atoms: _199  and  _200
REMARK   79  A    between atoms: _203  and  _205
REMARK   80  A    between atoms: _205  and  _206
REMARK   81  A    between atoms: _205  and  _208
REMARK   82  A    between atoms: _208  and  _209
REMARK   83  A    between atoms: _213  and  ZN_369
REMARK   84  A    between atoms: _214  and  _216
REMARK   85  A    between atoms: _216  and  _217
REMARK   86  A    between atoms: _216  and  _219
REMARK   87  A    between atoms: _219  and  _220
REMARK   88  A    between atoms: _225  and  _226
REMARK   89  A    between atoms: _228  and  _230
REMARK   90  A    between atoms: _230  and  _231
REMARK   91  A    between atoms: _230  and  _233
REMARK   92  A    between atoms: _233  and  _234
REMARK   93  A    between atoms: _239  and  _241
REMARK   94  A    between atoms: _241  and  _242
REMARK   95  A    between atoms: _241  and  _244
REMARK   96  A    between atoms: _244  and  _245
REMARK   97  A    between atoms: _245  and  _246
REMARK   98  A    between atoms: _246  and  _248
REMARK   99  A    between atoms: _248  and  ZN_369
REMARK  100  A    between atoms: _249  and  _251
REMARK  101  A    between atoms: _251  and  _252
REMARK  102  A    between atoms: _251  and  _254
REMARK  103  A    between atoms: _254  and  _255
REMARK  104  A    between atoms: _257  and  _259
REMARK  105  A    between atoms: _259  and  _260
REMARK  106  A    between atoms: _259  and  _262
REMARK  107  A    between atoms: _262  and  _263
REMARK  108  A    between atoms: _266  and  _268
REMARK  109  A    between atoms: _268  and  _269
REMARK  110  A    between atoms: _271  and  _273
REMARK  111  A    between atoms: _273  and  _274
REMARK  112  A    between atoms: _273  and  _276
REMARK  113  A    between atoms: _276  and  _277
REMARK  114  A    between atoms: _280  and  _282
REMARK  115  A    between atoms: _282  and  _283
REMARK  116  A    between atoms: _285  and  _287
REMARK  117  A    between atoms: _287  and  _288
REMARK  118  A    between atoms: _287  and  _290
REMARK  119  A    between atoms: _293  and  _295
REMARK  120  A    between atoms: _295  and  _296
REMARK  121  A    between atoms: _295  and  _298
REMARK  122  A    between atoms: _298  and  _299
REMARK  123  A    between atoms: _304  and  _305
REMARK  124  A    between atoms: _307  and  _309
REMARK  125  A    between atoms: _309  and  _310
REMARK  126  A    between atoms: _309  and  _312
REMARK  127  A    between atoms: _312  and  _313
REMARK  128  A    between atoms: _316  and  _318
REMARK  129  A    between atoms: _318  and  _319
REMARK  130  A    between atoms: _318  and  _321
REMARK  131  A    between atoms: _321  and  _322
REMARK  132  A    between atoms: _322  and  _323
REMARK  133  A    between atoms: _323  and  _324
REMARK  134  A    between atoms: _333  and  _335
REMARK  135  A    between atoms: _335  and  _336
REMARK  136  A    between atoms: _335  and  _338
REMARK  137  A    between atoms: _338  and  _339
REMARK  138  A    between atoms: _342  and  _344
REMARK  139  A    between atoms: _344  and  _345
REMARK  140  A    between atoms: _344  and  _347
REMARK  141  A    between atoms: _350  and  _352
REMARK  142  A    between atoms: _352  and  _353
REMARK  143  A    between atoms: _352  and  _355
REMARK  144  A    between atoms: _355  and  _356
REMARK  145  A    between atoms: _361  and  _363
REMARK  146  A    between atoms: _363  and  _364
REMARK  147  A    between atoms: _363  and  _366
REMARK  148  A    between atoms: _366  and  _367
REMARK                            x       y       z     vdW  Elec       q    Type
REMARK                         _______ _______ _______ _____ _____    ______ ____
ROOT
ATOM      1  CA  ARG A   2      45.469  42.886  -0.182  0.00  0.00    +0.137 C 
ENDROOT
BRANCH   1   3
ATOM      2  C   LEU A   1      44.218  40.990   0.713  0.00  0.00    +0.238 C 
ATOM      3  N   ARG A   2      44.448  42.301   0.668  0.00  0.00    -0.298 N 
ATOM      4  H   ARG A   2      43.874  42.930   1.265  0.00  0.00    +0.150 HD
ATOM      5  O   LEU A   1      44.809  40.190  -0.027  0.00  0.00    -0.274 OA
BRANCH   2   6
ATOM      6  CA  LEU A   1      43.134  40.596   1.711  0.00  0.00    +0.145 C 
BRANCH   6   7
ATOM      7  N   LEU A   1      43.333  41.260   2.988  0.00  0.00    -0.238 NA
ATOM      8  H   LEU A   1      42.686  42.029   3.255  0.00  0.00    +0.142 HD
ENDBRANCH   6   7
BRANCH   6   9
ATOM      9  CB  LEU A   1      41.751  40.984   1.192  0.00  0.00    +0.026 C 
BRANCH   9  10
ATOM     10  CG  LEU A   1      41.064  40.117   0.142  0.00  0.00    +0.002 C 
ATOM     11  CD2 LEU A   1      41.213  38.638   0.438  0.00  0.00    +0.000 C 
ATOM     12  CD1 LEU A   1      39.594  40.515   0.024  0.00  0.00    +0.000 C 
ENDBRANCH   9  10
ENDBRANCH   6   9
ENDBRANCH   2   6
ENDBRANCH   1   3
BRANCH   1  13
ATOM     13  C   ARG A   2      46.121  44.073   0.518  0.00  0.00    +0.227 C 
ATOM     14  O   ARG A   2      45.492  44.653   1.398  0.00  0.00    -0.286 OA
ENDBRANCH   1  13
BRANCH   1  15
ATOM     15  CB  ARG A   2      44.865  43.408  -1.492  0.00  0.00    +0.031 C 
BRANCH  15  16
ATOM     16  CG  ARG A   2      44.408  42.313  -2.443  0.00  0.00    +0.045 C 
BRANCH  16  17
ATOM     17  CD  ARG A   2      43.912  42.938  -3.745  0.00  0.00    +0.174 C 
BRANCH  17  18
ATOM     18  NE  ARG A   2      42.626  43.622  -3.604  0.00  0.00    -0.265 N 
ATOM     19  CZ  ARG A   2      41.464  42.998  -3.509  0.00  0.00    +0.342 C 
ATOM     20  NH2 ARG A   2      40.348  43.719  -3.401  0.00  0.00    -0.292 N 
ATOM     21 HH21 ARG A   2      39.427  43.243  -3.325  0.00  0.00    +0.255 HD
ATOM     22 HH22 ARG A   2      40.399  44.758  -3.392  0.00  0.00    +0.255 HD
ATOM     23  NH1 ARG A   2      41.427  41.672  -3.522  0.00  0.00    -0.292 N 
ATOM     24 HH11 ARG A   2      40.516  41.176  -3.448  0.00  0.00    +0.255 HD
ATOM     25 HH12 ARG A   2      42.309  41.128  -3.607  0.00  0.00    +0.255 HD
ATOM     26  HE  ARG A   2      42.626  44.662  -3.577  0.00  0.00    +0.259 HD
ENDBRANCH  17  18
ENDBRANCH  16  17
ENDBRANCH  15  16
ENDBRANCH   1  15
TORSDOF 10
REMARK  Name = ../refined-set-2016/3fcq/3fcq_pocket.pdb
REMARK  148 active torsions:
REMARK  status: ('A' for Active; 'I' for Inactive)
REMARK    1  A    between atoms: _1  and  _3
REMARK    2  A    between atoms: _3  and  _4
REMARK    3  A    between atoms: _3  and  _6
REMARK    4  A    between atoms: _6  and  _7
REMARK    5  A    between atoms: _12  and  _13
REMARK    6  A    between atoms: _15  and  _17
REMARK    7  A    between atoms: _17  and  _18
REMARK    8  A    between atoms: _17  and  _20
REMARK    9  A    between atoms: _20  and  _21
REMARK   10  A    between atoms: _26  and  _28
REMARK   11  A    between atoms: _28  and  _29
REMARK   12  A    between atoms: _28  and  _31
REMARK   13  A    between atoms: _31  and  _32
REMARK   14  A    between atoms: _37  and  _39
REMARK   15  A    between atoms: _39  and  _40
REMARK   16  A    between atoms: _43  and  _45
REMARK   17  A    between atoms: _45  and  _46
REMARK   18  A    between atoms: _45  and  _48
REMARK   19  A    between atoms: _48  and  _49
REMARK   20  A    between atoms: _55  and  _57
REMARK   21  A    between atoms: _57  and  _58
REMARK   22  A    between atoms: _57  and  _60
REMARK   23  A    between atoms: _60  and  _61
REMARK   24  A    between atoms: _71  and  _73
REMARK   25  A    between atoms: _73  and  _74
REMARK   26  A    between atoms: _73  and  _76
REMARK   27  A    between atoms: _76  and  _77
REMARK   28  A    between atoms: _77  and  _78
REMARK   29  A    between atoms: _80  and  _82
REMARK   30  A    between atoms: _82  and  _83
REMARK   31  A    between atoms: _82  and  _85
REMARK   32  A    between atoms: _88  and  _90
REMARK   33  A    between atoms: _90  and  _91
REMARK   34  A    between atoms: _90  and  _93
REMARK   35  A    between atoms: _93  and  _94
REMARK   36  A    between atoms: _99  and  _100
REMARK   37  A    between atoms: _102  and  _104
REMARK   38  A    between atoms: _104  and  _105
REMARK   39  A    between atoms: _107  and  _109
REMARK   40  A    between atoms: _109  and  _110
REMARK   41  A    between atoms: _109  and  _112
REMARK   42  A    between atoms: _112  and  _113
REMARK   43  A    between atoms: _116  and  _118
REMARK   44  A    between atoms: _118  and  _119
REMARK   45  A    between atoms: _118  and  _121
REMARK   46  A    between atoms: _121  and  _122
REMARK   47  A    between atoms: _128  and  _130
REMARK   48  A    between atoms: _130  and  _131
REMARK   49  A    between atoms: _130  and  _133
REMARK   50  A    between atoms: _133  and  _134
REMARK   51  A    between atoms: _137  and  _139
REMARK   52  A    between atoms: _139  and  _140
REMARK   53  A    between atoms: _142  and  _144
REMARK   54  A    between atoms: _144  and  _145
REMARK   55  A    between atoms: _144  and  _147
REMARK   56  A    between atoms: _147  and  _148
REMARK   57  A    between atoms: _151  and  _153
REMARK   58  A    between atoms: _153  and  _154
REMARK   59  A    between atoms: _153  and  _156
REMARK   60  A    between atoms: _159  and  _161
REMARK   61  A    between atoms: _161  and  _162
REMARK   62  A    between atoms: _161  and  _164
REMARK   63  A    between atoms: _167  and  _169
REMARK   64  A    between atoms: _169  and  _170
REMARK   65  A    between atoms: _173  and  _175
REMARK   66  A    between atoms: _175  and  _176
REMARK   67  A    between atoms: _175  and  _178
REMARK   68  A    between atoms: _178  and  _179
REMARK   69  A    between atoms: _183  and  ZN_369
REMARK   70  A    between atoms: _184  and  _186
REMARK   71  A    between atoms: _186  and  _187
REMARK   72  A    between atoms: _186  and  _189
REMARK   73  A    between atoms: _189  and  _190
REMARK   74  A    between atoms: _190  and  _191
REMARK   75  A    between atoms: _194  and  _196
REMARK   76  A    between atoms: _196  and  _197
REMARK   77  A    between atoms: _196  and  _199
REMARK   78  A    between atoms: _199  and  _200
REMARK   79  A    between atoms: _203  and  _205
REMARK   80  A    between atoms: _205  and  _206
REMARK   81  A    between atoms: _205  and  _208
REMARK   82  A    between atoms: _208  and  _209
REMARK   83  A    between atoms: _213  and  ZN_369
REMARK   84  A    between atoms: _214  and  _216
REMARK   85  A    between atoms: _216  and  _217
REMARK   86  A    between atoms: _216  and  _219
REMARK   87  A    between atoms: _219  and  _220
REMARK   88  A    between atoms: _225  and  _226
REMARK   89  A    between atoms: _228  and  _230
REMARK   90  A    between atoms: _230  and  _231
REMARK   91  A    between atoms: _230  and  _233
REMARK   92  A    between atoms: _233  and  _234
REMARK   93  A    between atoms: _239  and  _241
REMARK   94  A    between atoms: _241  and  _242
REMARK   95  A    between atoms: _241  and  _244
REMARK   96  A    between atoms: _244  and  _245
REMARK   97  A    between atoms: _245  and  _246
REMARK   98  A    between atoms: _246  and  _248
REMARK   99  A    between atoms: _248  and  ZN_369
REMARK  100  A    between atoms: _249  and  _251
REMARK  101  A    between atoms: _251  and  _252
REMARK  102  A    between atoms: _251  and  _254
REMARK  103  A    between atoms: _254  and  _255
REMARK  104  A    between atoms: _257  and  _259
REMARK  105  A    between atoms: _259  and  _260
REMARK  106  A    between atoms: _259  and  _262
REMARK  107  A    between atoms: _262  and  _263
REMARK  108  A    between atoms: _266  and  _268
REMARK  109  A    between atoms: _268  and  _269
REMARK  110  A    between atoms: _271  and  _273
REMARK  111  A    between atoms: _273  and  _274
REMARK  112  A    between atoms: _273  and  _276
REMARK  113  A    between atoms: _276  and  _277
REMARK  114  A    between atoms: _280  and  _282
REMARK  115  A    between atoms: _282  and  _283
REMARK  116  A    between atoms: _285  and  _287
REMARK  117  A    between atoms: _287  and  _288
REMARK  118  A    between atoms: _287  and  _290
REMARK  119  A    between atoms: _293  and  _295
REMARK  120  A    between atoms: _295  and  _296
REMARK  121  A    between atoms: _295  and  _298
REMARK  122  A    between atoms: _298  and  _299
REMARK  123  A    between atoms: _304  and  _305
REMARK  124  A    between atoms: _307  and  _309
REMARK  125  A    between atoms: _309  and  _310
REMARK  126  A    between atoms: _309  and  _312
REMARK  127  A    between atoms: _312  and  _313
REMARK  128  A    between atoms: _316  and  _318
REMARK  129  A    between atoms: _318  and  _319
REMARK  130  A    between atoms: _318  and  _321
REMARK  131  A    between atoms: _321  and  _322
REMARK  132  A    between atoms: _322  and  _323
REMARK  133  A    between atoms: _323  and  _324
REMARK  134  A    between atoms: _333  and  _335
REMARK  135  A    between atoms: _335  and  _336
REMARK  136  A    between atoms: _335  and  _338
REMARK  137  A    between atoms: _338  and  _339
REMARK  138  A    between atoms: _342  and  _344
REMARK  139  A    between atoms: _344  and  _345
REMARK  140  A    between atoms: _344  and  _347
REMARK  141  A    between atoms: _350  and  _352
REMARK  142  A    between atoms: _352  and  _353
REMARK  143  A    between atoms: _352  and  _355
REMARK  144  A    between atoms: _355  and  _356
REMARK  145  A    between atoms: _361  and  _363
REMARK  146  A    between atoms: _363  and  _364
REMARK  147  A    between atoms: _363  and  _366
REMARK  148  A    between atoms: _366  and  _367
REMARK                            x       y       z     vdW  Elec       q    Type
REMARK                         _______ _______ _______ _____ _____    ______ ____
ROOT
ATOM      1  CA  ASP A   1      41.132  34.997 -11.747  0.00  0.00    +0.144 C 
ENDROOT
BRANCH   1   2
ATOM      2  N   ASP A   1      41.601  33.693 -12.230  0.00  0.00    -0.239 NA
ATOM      3  H   ASP A   1      41.082  32.833 -11.960  0.00  0.00    +0.142 HD
ENDBRANCH   1   2
BRANCH   1   4
ATOM      4  C   ASP A   1      40.927  35.982 -12.882  0.00  0.00    +0.225 C 
ATOM      5  O   ASP A   1      41.301  37.153 -12.805  0.00  0.00    -0.287 OA
ENDBRANCH   1   4
BRANCH   1   6
ATOM      6  CB  ASP A   1      42.164  35.546 -10.768  0.00  0.00    +0.139 C 
BRANCH   6   7
ATOM      7  CG  ASP A   1      41.737  36.792 -10.040  0.00  0.00    +0.367 C 
ATOM      8  OD2 ASP A   1      42.601  37.625  -9.701  0.00  0.00    -0.246 OA
ATOM      9  OD1 ASP A   1      40.537  37.007  -9.778  0.00  0.00    -0.246 OA
ENDBRANCH   6   7
ENDBRANCH   1   6
TORSDOF 4
REMARK  Name = ../refined-set-2016/3fcq/3fcq_pocket.pdb
REMARK  148 active torsions:
REMARK  status: ('A' for Active; 'I' for Inactive)
REMARK    1  A    between atoms: _1  and  _3
REMARK    2  A    between atoms: _3  and  _4
REMARK    3  A    between atoms: _3  and  _6
REMARK    4  A    between atoms: _6  and  _7
REMARK    5  A    between atoms: _12  and  _13
REMARK    6  A    between atoms: _15  and  _17
REMARK    7  A    between atoms: _17  and  _18
REMARK    8  A    between atoms: _17  and  _20
REMARK    9  A    between atoms: _20  and  _21
REMARK   10  A    between atoms: _26  and  _28
REMARK   11  A    between atoms: _28  and  _29
REMARK   12  A    between atoms: _28  and  _31
REMARK   13  A    between atoms: _31  and  _32
REMARK   14  A    between atoms: _37  and  _39
REMARK   15  A    between atoms: _39  and  _40
REMARK   16  A    between atoms: _43  and  _45
REMARK   17  A    between atoms: _45  and  _46
REMARK   18  A    between atoms: _45  and  _48
REMARK   19  A    between atoms: _48  and  _49
REMARK   20  A    between atoms: _55  and  _57
REMARK   21  A    between atoms: _57  and  _58
REMARK   22  A    between atoms: _57  and  _60
REMARK   23  A    between atoms: _60  and  _61
REMARK   24  A    between atoms: _71  and  _73
REMARK   25  A    between atoms: _73  and  _74
REMARK   26  A    between atoms: _73  and  _76
REMARK   27  A    between atoms: _76  and  _77
REMARK   28  A    between atoms: _77  and  _78
REMARK   29  A    between atoms: _80  and  _82
REMARK   30  A    between atoms: _82  and  _83
REMARK   31  A    between atoms: _82  and  _85
REMARK   32  A    between atoms: _88  and  _90
REMARK   33  A    between atoms: _90  and  _91
REMARK   34  A    between atoms: _90  and  _93
REMARK   35  A    between atoms: _93  and  _94
REMARK   36  A    between atoms: _99  and  _100
REMARK   37  A    between atoms: _102  and  _104
REMARK   38  A    between atoms: _104  and  _105
REMARK   39  A    between atoms: _107  and  _109
REMARK   40  A    between atoms: _109  and  _110
REMARK   41  A    between atoms: _109  and  _112
REMARK   42  A    between atoms: _112  and  _113
REMARK   43  A    between atoms: _116  and  _118
REMARK   44  A    between atoms: _118  and  _119
REMARK   45  A    between atoms: _118  and  _121
REMARK   46  A    between atoms: _121  and  _122
REMARK   47  A    between atoms: _128  and  _130
REMARK   48  A    between atoms: _130  and  _131
REMARK   49  A    between atoms: _130  and  _133
REMARK   50  A    between atoms: _133  and  _134
REMARK   51  A    between atoms: _137  and  _139
REMARK   52  A    between atoms: _139  and  _140
REMARK   53  A    between atoms: _142  and  _144
REMARK   54  A    between atoms: _144  and  _145
REMARK   55  A    between atoms: _144  and  _147
REMARK   56  A    between atoms: _147  and  _148
REMARK   57  A    between atoms: _151  and  _153
REMARK   58  A    between atoms: _153  and  _154
REMARK   59  A    between atoms: _153  and  _156
REMARK   60  A    between atoms: _159  and  _161
REMARK   61  A    between atoms: _161  and  _162
REMARK   62  A    between atoms: _161  and  _164
REMARK   63  A    between atoms: _167  and  _169
REMARK   64  A    between atoms: _169  and  _170
REMARK   65  A    between atoms: _173  and  _175
REMARK   66  A    between atoms: _175  and  _176
REMARK   67  A    between atoms: _175  and  _178
REMARK   68  A    between atoms: _178  and  _179
REMARK   69  A    between atoms: _183  and  ZN_369
REMARK   70  A    between atoms: _184  and  _186
REMARK   71  A    between atoms: _186  and  _187
REMARK   72  A    between atoms: _186  and  _189
REMARK   73  A    between atoms: _189  and  _190
REMARK   74  A    between atoms: _190  and  _191
REMARK   75  A    between atoms: _194  and  _196
REMARK   76  A    between atoms: _196  and  _197
REMARK   77  A    between atoms: _196  and  _199
REMARK   78  A    between atoms: _199  and  _200
REMARK   79  A    between atoms: _203  and  _205
REMARK   80  A    between atoms: _205  and  _206
REMARK   81  A    between atoms: _205  and  _208
REMARK   82  A    between atoms: _208  and  _209
REMARK   83  A    between atoms: _213  and  ZN_369
REMARK   84  A    between atoms: _214  and  _216
REMARK   85  A    between atoms: _216  and  _217
REMARK   86  A    between atoms: _216  and  _219
REMARK   87  A    between atoms: _219  and  _220
REMARK   88  A    between atoms: _225  and  _226
REMARK   89  A    between atoms: _228  and  _230
REMARK   90  A    between atoms: _230  and  _231
REMARK   91  A    between atoms: _230  and  _233
REMARK   92  A    between atoms: _233  and  _234
REMARK   93  A    between atoms: _239  and  _241
REMARK   94  A    between atoms: _241  and  _242
REMARK   95  A    between atoms: _241  and  _244
REMARK   96  A    between atoms: _244  and  _245
REMARK   97  A    between atoms: _245  and  _246
REMARK   98  A    between atoms: _246  and  _248
REMARK   99  A    between atoms: _248  and  ZN_369
REMARK  100  A    between atoms: _249  and  _251
REMARK  101  A    between atoms: _251  and  _252
REMARK  102  A    between atoms: _251  and  _254
REMARK  103  A    between atoms: _254  and  _255
REMARK  104  A    between atoms: _257  and  _259
REMARK  105  A    between atoms: _259  and  _260
REMARK  106  A    between atoms: _259  and  _262
REMARK  107  A    between atoms: _262  and  _263
REMARK  108  A    between atoms: _266  and  _268
REMARK  109  A    between atoms: _268  and  _269
REMARK  110  A    between atoms: _271  and  _273
REMARK  111  A    between atoms: _273  and  _274
REMARK  112  A    between atoms: _273  and  _276
REMARK  113  A    between atoms: _276  and  _277
REMARK  114  A    between atoms: _280  and  _282
REMARK  115  A    between atoms: _282  and  _283
REMARK  116  A    between atoms: _285  and  _287
REMARK  117  A    between atoms: _287  and  _288
REMARK  118  A    between atoms: _287  and  _290
REMARK  119  A    between atoms: _293  and  _295
REMARK  120  A    between atoms: _295  and  _296
REMARK  121  A    between atoms: _295  and  _298
REMARK  122  A    between atoms: _298  and  _299
REMARK  123  A    between atoms: _304  and  _305
REMARK  124  A    between atoms: _307  and  _309
REMARK  125  A    between atoms: _309  and  _310
REMARK  126  A    between atoms: _309  and  _312
REMARK  127  A    between atoms: _312  and  _313
REMARK  128  A    between atoms: _316  and  _318
REMARK  129  A    between atoms: _318  and  _319
REMARK  130  A    between atoms: _318  and  _321
REMARK  131  A    between atoms: _321  and  _322
REMARK  132  A    between atoms: _322  and  _323
REMARK  133  A    between atoms: _323  and  _324
REMARK  134  A    between atoms: _333  and  _335
REMARK  135  A    between atoms: _335  and  _336
REMARK  136  A    between atoms: _335  and  _338
REMARK  137  A    between atoms: _338  and  _339
REMARK  138  A    between atoms: _342  and  _344
REMARK  139  A    between atoms: _344  and  _345
REMARK  140  A    between atoms: _344  and  _347
REMARK  141  A    between atoms: _350  and  _352
REMARK  142  A    between atoms: _352  and  _353
REMARK  143  A    between atoms: _352  and  _355
REMARK  144  A    between atoms: _355  and  _356
REMARK  145  A    between atoms: _361  and  _363
REMARK  146  A    between atoms: _363  and  _364
REMARK  147  A    between atoms: _363  and  _366
REMARK  148  A    between atoms: _366  and  _367
REMARK                            x       y       z     vdW  Elec       q    Type
REMARK                         _______ _______ _______ _____ _____    ______ ____
ROOT
ATOM      1  C   VAL A   1      42.713  41.250 -10.591  0.00  0.00    +0.238 C 
ATOM      2  N   HIS A   2      42.712  40.341  -9.618  0.00  0.00    -0.298 N 
ATOM      3  H   HIS A   2      42.553  39.345  -9.873  0.00  0.00    +0.150 HD
ATOM      4  O   VAL A   1      42.908  42.451 -10.341  0.00  0.00    -0.274 OA
ENDROOT
BRANCH   1   5
ATOM      5  CA  VAL A   1      42.479  40.851 -12.044  0.00  0.00    +0.145 C 
BRANCH   5   6
ATOM      6  CB  VAL A   1      40.996  41.045 -12.448  0.00  0.00    +0.025 C 
ATOM      7  CG2 VAL A   1      40.071  40.118 -11.672  0.00  0.00    +0.002 C 
ATOM      8  CG1 VAL A   1      40.821  40.826 -13.942  0.00  0.00    +0.002 C 
ENDBRANCH   5   6
BRANCH   5   9
ATOM      9  N   VAL A   1      42.950  39.486 -12.314  0.00  0.00    -0.238 NA
ATOM     10  H   VAL A   1      42.298  38.723 -12.588  0.00  0.00    +0.142 HD
ENDBRANCH   5   9
ENDBRANCH   1   5
BRANCH   2  11
ATOM     11  CA  HIS A   2      42.922  40.671  -8.216  0.00  0.00    +0.143 C 
BRANCH  11  12
ATOM     12  C   HIS A   2      44.399  40.571  -7.802  0.00  0.00    +0.227 C 
ATOM     13  O   HIS A   2      44.706  40.767  -6.632  0.00  0.00    -0.286 OA
ENDBRANCH  11  12
BRANCH  11  14
ATOM     14  CB  HIS A   2      42.123  39.741  -7.291  0.00  0.00    +0.075 C 
BRANCH  14  15
ATOM     15  CG  HIS A   2      40.645  39.952  -7.347  0.00  0.00    +0.082 A 
ATOM     16  CD2 HIS A   2      39.852  40.866  -6.728  0.00  0.00    +0.115 A 
ATOM     17  NE2 HIS A   2      38.563  40.619  -7.137  0.00  0.00    -0.221 NA
ATOM     18  CE1 HIS A   2      38.548  39.598  -7.978  0.00  0.00    +0.199 A 
ATOM     19  ND1 HIS A   2      39.806  39.174  -8.115  0.00  0.00    -0.227 NA
ENDBRANCH  14  15
ENDBRANCH  11  14
ENDBRANCH   2  11
TORSDOF 7
REMARK  Name = ../refined-set-2016/3fcq/3fcq_pocket.pdb
REMARK  148 active torsions:
REMARK  status: ('A' for Active; 'I' for Inactive)
REMARK    1  A    between atoms: _1  and  _3
REMARK    2  A    between atoms: _3  and  _4
REMARK    3  A    between atoms: _3  and  _6
REMARK    4  A    between atoms: _6  and  _7
REMARK    5  A    between atoms: _12  and  _13
REMARK    6  A    between atoms: _15  and  _17
REMARK    7  A    between atoms: _17  and  _18
REMARK    8  A    between atoms: _17  and  _20
REMARK    9  A    between atoms: _20  and  _21
REMARK   10  A    between atoms: _26  and  _28
REMARK   11  A    between atoms: _28  and  _29
REMARK   12  A    between atoms: _28  and  _31
REMARK   13  A    between atoms: _31  and  _32
REMARK   14  A    between atoms: _37  and  _39
REMARK   15  A    between atoms: _39  and  _40
REMARK   16  A    between atoms: _43  and  _45
REMARK   17  A    between atoms: _45  and  _46
REMARK   18  A    between atoms: _45  and  _48
REMARK   19  A    between atoms: _48  and  _49
REMARK   20  A    between atoms: _55  and  _57
REMARK   21  A    between atoms: _57  and  _58
REMARK   22  A    between atoms: _57  and  _60
REMARK   23  A    between atoms: _60  and  _61
REMARK   24  A    between atoms: _71  and  _73
REMARK   25  A    between atoms: _73  and  _74
REMARK   26  A    between atoms: _73  and  _76
REMARK   27  A    between atoms: _76  and  _77
REMARK   28  A    between atoms: _77  and  _78
REMARK   29  A    between atoms: _80  and  _82
REMARK   30  A    between atoms: _82  and  _83
REMARK   31  A    between atoms: _82  and  _85
REMARK   32  A    between atoms: _88  and  _90
REMARK   33  A    between atoms: _90  and  _91
REMARK   34  A    between atoms: _90  and  _93
REMARK   35  A    between atoms: _93  and  _94
REMARK   36  A    between atoms: _99  and  _100
REMARK   37  A    between atoms: _102  and  _104
REMARK   38  A    between atoms: _104  and  _105
REMARK   39  A    between atoms: _107  and  _109
REMARK   40  A    between atoms: _109  and  _110
REMARK   41  A    between atoms: _109  and  _112
REMARK   42  A    between atoms: _112  and  _113
REMARK   43  A    between atoms: _116  and  _118
REMARK   44  A    between atoms: _118  and  _119
REMARK   45  A    between atoms: _118  and  _121
REMARK   46  A    between atoms: _121  and  _122
REMARK   47  A    between atoms: _128  and  _130
REMARK   48  A    between atoms: _130  and  _131
REMARK   49  A    between atoms: _130  and  _133
REMARK   50  A    between atoms: _133  and  _134
REMARK   51  A    between atoms: _137  and  _139
REMARK   52  A    between atoms: _139  and  _140
REMARK   53  A    between atoms: _142  and  _144
REMARK   54  A    between atoms: _144  and  _145
REMARK   55  A    between atoms: _144  and  _147
REMARK   56  A    between atoms: _147  and  _148
REMARK   57  A    between atoms: _151  and  _153
REMARK   58  A    between atoms: _153  and  _154
REMARK   59  A    between atoms: _153  and  _156
REMARK   60  A    between atoms: _159  and  _161
REMARK   61  A    between atoms: _161  and  _162
REMARK   62  A    between atoms: _161  and  _164
REMARK   63  A    between atoms: _167  and  _169
REMARK   64  A    between atoms: _169  and  _170
REMARK   65  A    between atoms: _173  and  _175
REMARK   66  A    between atoms: _175  and  _176
REMARK   67  A    between atoms: _175  and  _178
REMARK   68  A    between atoms: _178  and  _179
REMARK   69  A    between atoms: _183  and  ZN_369
REMARK   70  A    between atoms: _184  and  _186
REMARK   71  A    between atoms: _186  and  _187
REMARK   72  A    between atoms: _186  and  _189
REMARK   73  A    between atoms: _189  and  _190
REMARK   74  A    between atoms: _190  and  _191
REMARK   75  A    between atoms: _194  and  _196
REMARK   76  A    between atoms: _196  and  _197
REMARK   77  A    between atoms: _196  and  _199
REMARK   78  A    between atoms: _199  and  _200
REMARK   79  A    between atoms: _203  and  _205
REMARK   80  A    between atoms: _205  and  _206
REMARK   81  A    between atoms: _205  and  _208
REMARK   82  A    between atoms: _208  and  _209
REMARK   83  A    between atoms: _213  and  ZN_369
REMARK   84  A    between atoms: _214  and  _216
REMARK   85  A    between atoms: _216  and  _217
REMARK   86  A    between atoms: _216  and  _219
REMARK   87  A    between atoms: _219  and  _220
REMARK   88  A    between atoms: _225  and  _226
REMARK   89  A    between atoms: _228  and  _230
REMARK   90  A    between atoms: _230  and  _231
REMARK   91  A    between atoms: _230  and  _233
REMARK   92  A    between atoms: _233  and  _234
REMARK   93  A    between atoms: _239  and  _241
REMARK   94  A    between atoms: _241  and  _242
REMARK   95  A    between atoms: _241  and  _244
REMARK   96  A    between atoms: _244  and  _245
REMARK   97  A    between atoms: _245  and  _246
REMARK   98  A    between atoms: _246  and  _248
REMARK   99  A    between atoms: _248  and  ZN_369
REMARK  100  A    between atoms: _249  and  _251
REMARK  101  A    between atoms: _251  and  _252
REMARK  102  A    between atoms: _251  and  _254
REMARK  103  A    between atoms: _254  and  _255
REMARK  104  A    between atoms: _257  and  _259
REMARK  105  A    between atoms: _259  and  _260
REMARK  106  A    between atoms: _259  and  _262
REMARK  107  A    between atoms: _262  and  _263
REMARK  108  A    between atoms: _266  and  _268
REMARK  109  A    between atoms: _268  and  _269
REMARK  110  A    between atoms: _271  and  _273
REMARK  111  A    between atoms: _273  and  _274
REMARK  112  A    between atoms: _273  and  _276
REMARK  113  A    between atoms: _276  and  _277
REMARK  114  A    between atoms: _280  and  _282
REMARK  115  A    between atoms: _282  and  _283
REMARK  116  A    between atoms: _285  and  _287
REMARK  117  A    between atoms: _287  and  _288
REMARK  118  A    between atoms: _287  and  _290
REMARK  119  A    between atoms: _293  and  _295
REMARK  120  A    between atoms: _295  and  _296
REMARK  121  A    between atoms: _295  and  _298
REMARK  122  A    between atoms: _298  and  _299
REMARK  123  A    between atoms: _304  and  _305
REMARK  124  A    between atoms: _307  and  _309
REMARK  125  A    between atoms: _309  and  _310
REMARK  126  A    between atoms: _309  and  _312
REMARK  127  A    between atoms: _312  and  _313
REMARK  128  A    between atoms: _316  and  _318
REMARK  129  A    between atoms: _318  and  _319
REMARK  130  A    between atoms: _318  and  _321
REMARK  131  A    between atoms: _321  and  _322
REMARK  132  A    between atoms: _322  and  _323
REMARK  133  A    between atoms: _323  and  _324
REMARK  134  A    between atoms: _333  and  _335
REMARK  135  A    between atoms: _335  and  _336
REMARK  136  A    between atoms: _335  and  _338
REMARK  137  A    between atoms: _338  and  _339
REMARK  138  A    between atoms: _342  and  _344
REMARK  139  A    between atoms: _344  and  _345
REMARK  140  A    between atoms: _344  and  _347
REMARK  141  A    between atoms: _350  and  _352
REMARK  142  A    between atoms: _352  and  _353
REMARK  143  A    between atoms: _352  and  _355
REMARK  144  A    between atoms: _355  and  _356
REMARK  145  A    between atoms: _361  and  _363
REMARK  146  A    between atoms: _363  and  _364
REMARK  147  A    between atoms: _363  and  _366
REMARK  148  A    between atoms: _366  and  _367
REMARK                            x       y       z     vdW  Elec       q    Type
REMARK                         _______ _______ _______ _____ _____    ______ ____
ROOT
ATOM      1  CA  SER A   1      45.837  45.108  -9.516  0.00  0.00    +0.163 C 
ENDROOT
BRANCH   1   2
ATOM      2  N   SER A   1      46.230  43.838 -10.122  0.00  0.00    -0.237 NA
ATOM      3  H   SER A   1      45.650  42.983 -10.001  0.00  0.00    +0.142 HD
ENDBRANCH   1   2
BRANCH   1   4
ATOM      4  C   SER A   1      46.900  45.633  -8.561  0.00  0.00    +0.227 C 
ATOM      5  O   SER A   1      46.967  46.828  -8.264  0.00  0.00    -0.287 OA
ENDBRANCH   1   4
BRANCH   1   6
ATOM      6  CB  SER A   1      44.519  44.975  -8.741  0.00  0.00    +0.162 C 
BRANCH   6   7
ATOM      7  OG  SER A   1      44.609  43.964  -7.753  0.00  0.00    -0.380 OA
ATOM      8  H   SER A   1      43.748  43.899  -7.269  0.00  0.00    +0.211 HD
ENDBRANCH   6   7
ENDBRANCH   1   6
TORSDOF 4
REMARK  Name = ../refined-set-2016/3fcq/3fcq_pocket.pdb
REMARK  148 active torsions:
REMARK  status: ('A' for Active; 'I' for Inactive)
REMARK    1  A    between atoms: _1  and  _3
REMARK    2  A    between atoms: _3  and  _4
REMARK    3  A    between atoms: _3  and  _6
REMARK    4  A    between atoms: _6  and  _7
REMARK    5  A    between atoms: _12  and  _13
REMARK    6  A    between atoms: _15  and  _17
REMARK    7  A    between atoms: _17  and  _18
REMARK    8  A    between atoms: _17  and  _20
REMARK    9  A    between atoms: _20  and  _21
REMARK   10  A    between atoms: _26  and  _28
REMARK   11  A    between atoms: _28  and  _29
REMARK   12  A    between atoms: _28  and  _31
REMARK   13  A    between atoms: _31  and  _32
REMARK   14  A    between atoms: _37  and  _39
REMARK   15  A    between atoms: _39  and  _40
REMARK   16  A    between atoms: _43  and  _45
REMARK   17  A    between atoms: _45  and  _46
REMARK   18  A    between atoms: _45  and  _48
REMARK   19  A    between atoms: _48  and  _49
REMARK   20  A    between atoms: _55  and  _57
REMARK   21  A    between atoms: _57  and  _58
REMARK   22  A    between atoms: _57  and  _60
REMARK   23  A    between atoms: _60  and  _61
REMARK   24  A    between atoms: _71  and  _73
REMARK   25  A    between atoms: _73  and  _74
REMARK   26  A    between atoms: _73  and  _76
REMARK   27  A    between atoms: _76  and  _77
REMARK   28  A    between atoms: _77  and  _78
REMARK   29  A    between atoms: _80  and  _82
REMARK   30  A    between atoms: _82  and  _83
REMARK   31  A    between atoms: _82  and  _85
REMARK   32  A    between atoms: _88  and  _90
REMARK   33  A    between atoms: _90  and  _91
REMARK   34  A    between atoms: _90  and  _93
REMARK   35  A    between atoms: _93  and  _94
REMARK   36  A    between atoms: _99  and  _100
REMARK   37  A    between atoms: _102  and  _104
REMARK   38  A    between atoms: _104  and  _105
REMARK   39  A    between atoms: _107  and  _109
REMARK   40  A    between atoms: _109  and  _110
REMARK   41  A    between atoms: _109  and  _112
REMARK   42  A    between atoms: _112  and  _113
REMARK   43  A    between atoms: _116  and  _118
REMARK   44  A    between atoms: _118  and  _119
REMARK   45  A    between atoms: _118  and  _121
REMARK   46  A    between atoms: _121  and  _122
REMARK   47  A    between atoms: _128  and  _130
REMARK   48  A    between atoms: _130  and  _131
REMARK   49  A    between atoms: _130  and  _133
REMARK   50  A    between atoms: _133  and  _134
REMARK   51  A    between atoms: _137  and  _139
REMARK   52  A    between atoms: _139  and  _140
REMARK   53  A    between atoms: _142  and  _144
REMARK   54  A    between atoms: _144  and  _145
REMARK   55  A    between atoms: _144  and  _147
REMARK   56  A    between atoms: _147  and  _148
REMARK   57  A    between atoms: _151  and  _153
REMARK   58  A    between atoms: _153  and  _154
REMARK   59  A    between atoms: _153  and  _156
REMARK   60  A    between atoms: _159  and  _161
REMARK   61  A    between atoms: _161  and  _162
REMARK   62  A    between atoms: _161  and  _164
REMARK   63  A    between atoms: _167  and  _169
REMARK   64  A    between atoms: _169  and  _170
REMARK   65  A    between atoms: _173  and  _175
REMARK   66  A    between atoms: _175  and  _176
REMARK   67  A    between atoms: _175  and  _178
REMARK   68  A    between atoms: _178  and  _179
REMARK   69  A    between atoms: _183  and  ZN_369
REMARK   70  A    between atoms: _184  and  _186
REMARK   71  A    between atoms: _186  and  _187
REMARK   72  A    between atoms: _186  and  _189
REMARK   73  A    between atoms: _189  and  _190
REMARK   74  A    between atoms: _190  and  _191
REMARK   75  A    between atoms: _194  and  _196
REMARK   76  A    between atoms: _196  and  _197
REMARK   77  A    between atoms: _196  and  _199
REMARK   78  A    between atoms: _199  and  _200
REMARK   79  A    between atoms: _203  and  _205
REMARK   80  A    between atoms: _205  and  _206
REMARK   81  A    between atoms: _205  and  _208
REMARK   82  A    between atoms: _208  and  _209
REMARK   83  A    between atoms: _213  and  ZN_369
REMARK   84  A    between atoms: _214  and  _216
REMARK   85  A    between atoms: _216  and  _217
REMARK   86  A    between atoms: _216  and  _219
REMARK   87  A    between atoms: _219  and  _220
REMARK   88  A    between atoms: _225  and  _226
REMARK   89  A    between atoms: _228  and  _230
REMARK   90  A    between atoms: _230  and  _231
REMARK   91  A    between atoms: _230  and  _233
REMARK   92  A    between atoms: _233  and  _234
REMARK   93  A    between atoms: _239  and  _241
REMARK   94  A    between atoms: _241  and  _242
REMARK   95  A    between atoms: _241  and  _244
REMARK   96  A    between atoms: _244  and  _245
REMARK   97  A    between atoms: _245  and  _246
REMARK   98  A    between atoms: _246  and  _248
REMARK   99  A    between atoms: _248  and  ZN_369
REMARK  100  A    between atoms: _249  and  _251
REMARK  101  A    between atoms: _251  and  _252
REMARK  102  A    between atoms: _251  and  _254
REMARK  103  A    between atoms: _254  and  _255
REMARK  104  A    between atoms: _257  and  _259
REMARK  105  A    between atoms: _259  and  _260
REMARK  106  A    between atoms: _259  and  _262
REMARK  107  A    between atoms: _262  and  _263
REMARK  108  A    between atoms: _266  and  _268
REMARK  109  A    between atoms: _268  and  _269
REMARK  110  A    between atoms: _271  and  _273
REMARK  111  A    between atoms: _273  and  _274
REMARK  112  A    between atoms: _273  and  _276
REMARK  113  A    between atoms: _276  and  _277
REMARK  114  A    between atoms: _280  and  _282
REMARK  115  A    between atoms: _282  and  _283
REMARK  116  A    between atoms: _285  and  _287
REMARK  117  A    between atoms: _287  and  _288
REMARK  118  A    between atoms: _287  and  _290
REMARK  119  A    between atoms: _293  and  _295
REMARK  120  A    between atoms: _295  and  _296
REMARK  121  A    between atoms: _295  and  _298
REMARK  122  A    between atoms: _298  and  _299
REMARK  123  A    between atoms: _304  and  _305
REMARK  124  A    between atoms: _307  and  _309
REMARK  125  A    between atoms: _309  and  _310
REMARK  126  A    between atoms: _309  and  _312
REMARK  127  A    between atoms: _312  and  _313
REMARK  128  A    between atoms: _316  and  _318
REMARK  129  A    between atoms: _318  and  _319
REMARK  130  A    between atoms: _318  and  _321
REMARK  131  A    between atoms: _321  and  _322
REMARK  132  A    between atoms: _322  and  _323
REMARK  133  A    between atoms: _323  and  _324
REMARK  134  A    between atoms: _333  and  _335
REMARK  135  A    between atoms: _335  and  _336
REMARK  136  A    between atoms: _335  and  _338
REMARK  137  A    between atoms: _338  and  _339
REMARK  138  A    between atoms: _342  and  _344
REMARK  139  A    between atoms: _344  and  _345
REMARK  140  A    between atoms: _344  and  _347
REMARK  141  A    between atoms: _350  and  _352
REMARK  142  A    between atoms: _352  and  _353
REMARK  143  A    between atoms: _352  and  _355
REMARK  144  A    between atoms: _355  and  _356
REMARK  145  A    between atoms: _361  and  _363
REMARK  146  A    between atoms: _363  and  _364
REMARK  147  A    between atoms: _363  and  _366
REMARK  148  A    between atoms: _366  and  _367
REMARK                            x       y       z     vdW  Elec       q    Type
REMARK                         _______ _______ _______ _____ _____    ______ ____
ROOT
ATOM      1  O   HOH     1      42.261  44.199  -6.451  0.00  0.00    +0.000 OA
ENDROOT
TORSDOF 0
REMARK  Name = ../refined-set-2016/3fcq/3fcq_pocket.pdb
REMARK  148 active torsions:
REMARK  status: ('A' for Active; 'I' for Inactive)
REMARK    1  A    between atoms: _1  and  _3
REMARK    2  A    between atoms: _3  and  _4
REMARK    3  A    between atoms: _3  and  _6
REMARK    4  A    between atoms: _6  and  _7
REMARK    5  A    between atoms: _12  and  _13
REMARK    6  A    between atoms: _15  and  _17
REMARK    7  A    between atoms: _17  and  _18
REMARK    8  A    between atoms: _17  and  _20
REMARK    9  A    between atoms: _20  and  _21
REMARK   10  A    between atoms: _26  and  _28
REMARK   11  A    between atoms: _28  and  _29
REMARK   12  A    between atoms: _28  and  _31
REMARK   13  A    between atoms: _31  and  _32
REMARK   14  A    between atoms: _37  and  _39
REMARK   15  A    between atoms: _39  and  _40
REMARK   16  A    between atoms: _43  and  _45
REMARK   17  A    between atoms: _45  and  _46
REMARK   18  A    between atoms: _45  and  _48
REMARK   19  A    between atoms: _48  and  _49
REMARK   20  A    between atoms: _55  and  _57
REMARK   21  A    between atoms: _57  and  _58
REMARK   22  A    between atoms: _57  and  _60
REMARK   23  A    between atoms: _60  and  _61
REMARK   24  A    between atoms: _71  and  _73
REMARK   25  A    between atoms: _73  and  _74
REMARK   26  A    between atoms: _73  and  _76
REMARK   27  A    between atoms: _76  and  _77
REMARK   28  A    between atoms: _77  and  _78
REMARK   29  A    between atoms: _80  and  _82
REMARK   30  A    between atoms: _82  and  _83
REMARK   31  A    between atoms: _82  and  _85
REMARK   32  A    between atoms: _88  and  _90
REMARK   33  A    between atoms: _90  and  _91
REMARK   34  A    between atoms: _90  and  _93
REMARK   35  A    between atoms: _93  and  _94
REMARK   36  A    between atoms: _99  and  _100
REMARK   37  A    between atoms: _102  and  _104
REMARK   38  A    between atoms: _104  and  _105
REMARK   39  A    between atoms: _107  and  _109
REMARK   40  A    between atoms: _109  and  _110
REMARK   41  A    between atoms: _109  and  _112
REMARK   42  A    between atoms: _112  and  _113
REMARK   43  A    between atoms: _116  and  _118
REMARK   44  A    between atoms: _118  and  _119
REMARK   45  A    between atoms: _118  and  _121
REMARK   46  A    between atoms: _121  and  _122
REMARK   47  A    between atoms: _128  and  _130
REMARK   48  A    between atoms: _130  and  _131
REMARK   49  A    between atoms: _130  and  _133
REMARK   50  A    between atoms: _133  and  _134
REMARK   51  A    between atoms: _137  and  _139
REMARK   52  A    between atoms: _139  and  _140
REMARK   53  A    between atoms: _142  and  _144
REMARK   54  A    between atoms: _144  and  _145
REMARK   55  A    between atoms: _144  and  _147
REMARK   56  A    between atoms: _147  and  _148
REMARK   57  A    between atoms: _151  and  _153
REMARK   58  A    between atoms: _153  and  _154
REMARK   59  A    between atoms: _153  and  _156
REMARK   60  A    between atoms: _159  and  _161
REMARK   61  A    between atoms: _161  and  _162
REMARK   62  A    between atoms: _161  and  _164
REMARK   63  A    between atoms: _167  and  _169
REMARK   64  A    between atoms: _169  and  _170
REMARK   65  A    between atoms: _173  and  _175
REMARK   66  A    between atoms: _175  and  _176
REMARK   67  A    between atoms: _175  and  _178
REMARK   68  A    between atoms: _178  and  _179
REMARK   69  A    between atoms: _183  and  ZN_369
REMARK   70  A    between atoms: _184  and  _186
REMARK   71  A    between atoms: _186  and  _187
REMARK   72  A    between atoms: _186  and  _189
REMARK   73  A    between atoms: _189  and  _190
REMARK   74  A    between atoms: _190  and  _191
REMARK   75  A    between atoms: _194  and  _196
REMARK   76  A    between atoms: _196  and  _197
REMARK   77  A    between atoms: _196  and  _199
REMARK   78  A    between atoms: _199  and  _200
REMARK   79  A    between atoms: _203  and  _205
REMARK   80  A    between atoms: _205  and  _206
REMARK   81  A    between atoms: _205  and  _208
REMARK   82  A    between atoms: _208  and  _209
REMARK   83  A    between atoms: _213  and  ZN_369
REMARK   84  A    between atoms: _214  and  _216
REMARK   85  A    between atoms: _216  and  _217
REMARK   86  A    between atoms: _216  and  _219
REMARK   87  A    between atoms: _219  and  _220
REMARK   88  A    between atoms: _225  and  _226
REMARK   89  A    between atoms: _228  and  _230
REMARK   90  A    between atoms: _230  and  _231
REMARK   91  A    between atoms: _230  and  _233
REMARK   92  A    between atoms: _233  and  _234
REMARK   93  A    between atoms: _239  and  _241
REMARK   94  A    between atoms: _241  and  _242
REMARK   95  A    between atoms: _241  and  _244
REMARK   96  A    between atoms: _244  and  _245
REMARK   97  A    between atoms: _245  and  _246
REMARK   98  A    between atoms: _246  and  _248
REMARK   99  A    between atoms: _248  and  ZN_369
REMARK  100  A    between atoms: _249  and  _251
REMARK  101  A    between atoms: _251  and  _252
REMARK  102  A    between atoms: _251  and  _254
REMARK  103  A    between atoms: _254  and  _255
REMARK  104  A    between atoms: _257  and  _259
REMARK  105  A    between atoms: _259  and  _260
REMARK  106  A    between atoms: _259  and  _262
REMARK  107  A    between atoms: _262  and  _263
REMARK  108  A    between atoms: _266  and  _268
REMARK  109  A    between atoms: _268  and  _269
REMARK  110  A    between atoms: _271  and  _273
REMARK  111  A    between atoms: _273  and  _274
REMARK  112  A    between atoms: _273  and  _276
REMARK  113  A    between atoms: _276  and  _277
REMARK  114  A    between atoms: _280  and  _282
REMARK  115  A    between atoms: _282  and  _283
REMARK  116  A    between atoms: _285  and  _287
REMARK  117  A    between atoms: _287  and  _288
REMARK  118  A    between atoms: _287  and  _290
REMARK  119  A    between atoms: _293  and  _295
REMARK  120  A    between atoms: _295  and  _296
REMARK  121  A    between atoms: _295  and  _298
REMARK  122  A    between atoms: _298  and  _299
REMARK  123  A    between atoms: _304  and  _305
REMARK  124  A    between atoms: _307  and  _309
REMARK  125  A    between atoms: _309  and  _310
REMARK  126  A    between atoms: _309  and  _312
REMARK  127  A    between atoms: _312  and  _313
REMARK  128  A    between atoms: _316  and  _318
REMARK  129  A    between atoms: _318  and  _319
REMARK  130  A    between atoms: _318  and  _321
REMARK  131  A    between atoms: _321  and  _322
REMARK  132  A    between atoms: _322  and  _323
REMARK  133  A    between atoms: _323  and  _324
REMARK  134  A    between atoms: _333  and  _335
REMARK  135  A    between atoms: _335  and  _336
REMARK  136  A    between atoms: _335  and  _338
REMARK  137  A    between atoms: _338  and  _339
REMARK  138  A    between atoms: _342  and  _344
REMARK  139  A    between atoms: _344  and  _345
REMARK  140  A    between atoms: _344  and  _347
REMARK  141  A    between atoms: _350  and  _352
REMARK  142  A    between atoms: _352  and  _353
REMARK  143  A    between atoms: _352  and  _355
REMARK  144  A    between atoms: _355  and  _356
REMARK  145  A    between atoms: _361  and  _363
REMARK  146  A    between atoms: _363  and  _364
REMARK  147  A    between atoms: _363  and  _366
REMARK  148  A    between atoms: _366  and  _367
REMARK                            x       y       z     vdW  Elec       q    Type
REMARK                         _______ _______ _______ _____ _____    ______ ____
ROOT
ATOM      1  O   HOH     1      39.107  39.930  -3.568  0.00  0.00    +0.000 OA
ENDROOT
TORSDOF 0
REMARK  Name = ../refined-set-2016/3fcq/3fcq_pocket.pdb
REMARK  148 active torsions:
REMARK  status: ('A' for Active; 'I' for Inactive)
REMARK    1  A    between atoms: _1  and  _3
REMARK    2  A    between atoms: _3  and  _4
REMARK    3  A    between atoms: _3  and  _6
REMARK    4  A    between atoms: _6  and  _7
REMARK    5  A    between atoms: _12  and  _13
REMARK    6  A    between atoms: _15  and  _17
REMARK    7  A    between atoms: _17  and  _18
REMARK    8  A    between atoms: _17  and  _20
REMARK    9  A    between atoms: _20  and  _21
REMARK   10  A    between atoms: _26  and  _28
REMARK   11  A    between atoms: _28  and  _29
REMARK   12  A    between atoms: _28  and  _31
REMARK   13  A    between atoms: _31  and  _32
REMARK   14  A    between atoms: _37  and  _39
REMARK   15  A    between atoms: _39  and  _40
REMARK   16  A    between atoms: _43  and  _45
REMARK   17  A    between atoms: _45  and  _46
REMARK   18  A    between atoms: _45  and  _48
REMARK   19  A    between atoms: _48  and  _49
REMARK   20  A    between atoms: _55  and  _57
REMARK   21  A    between atoms: _57  and  _58
REMARK   22  A    between atoms: _57  and  _60
REMARK   23  A    between atoms: _60  and  _61
REMARK   24  A    between atoms: _71  and  _73
REMARK   25  A    between atoms: _73  and  _74
REMARK   26  A    between atoms: _73  and  _76
REMARK   27  A    between atoms: _76  and  _77
REMARK   28  A    between atoms: _77  and  _78
REMARK   29  A    between atoms: _80  and  _82
REMARK   30  A    between atoms: _82  and  _83
REMARK   31  A    between atoms: _82  and  _85
REMARK   32  A    between atoms: _88  and  _90
REMARK   33  A    between atoms: _90  and  _91
REMARK   34  A    between atoms: _90  and  _93
REMARK   35  A    between atoms: _93  and  _94
REMARK   36  A    between atoms: _99  and  _100
REMARK   37  A    between atoms: _102  and  _104
REMARK   38  A    between atoms: _104  and  _105
REMARK   39  A    between atoms: _107  and  _109
REMARK   40  A    between atoms: _109  and  _110
REMARK   41  A    between atoms: _109  and  _112
REMARK   42  A    between atoms: _112  and  _113
REMARK   43  A    between atoms: _116  and  _118
REMARK   44  A    between atoms: _118  and  _119
REMARK   45  A    between atoms: _118  and  _121
REMARK   46  A    between atoms: _121  and  _122
REMARK   47  A    between atoms: _128  and  _130
REMARK   48  A    between atoms: _130  and  _131
REMARK   49  A    between atoms: _130  and  _133
REMARK   50  A    between atoms: _133  and  _134
REMARK   51  A    between atoms: _137  and  _139
REMARK   52  A    between atoms: _139  and  _140
REMARK   53  A    between atoms: _142  and  _144
REMARK   54  A    between atoms: _144  and  _145
REMARK   55  A    between atoms: _144  and  _147
REMARK   56  A    between atoms: _147  and  _148
REMARK   57  A    between atoms: _151  and  _153
REMARK   58  A    between atoms: _153  and  _154
REMARK   59  A    between atoms: _153  and  _156
REMARK   60  A    between atoms: _159  and  _161
REMARK   61  A    between atoms: _161  and  _162
REMARK   62  A    between atoms: _161  and  _164
REMARK   63  A    between atoms: _167  and  _169
REMARK   64  A    between atoms: _169  and  _170
REMARK   65  A    between atoms: _173  and  _175
REMARK   66  A    between atoms: _175  and  _176
REMARK   67  A    between atoms: _175  and  _178
REMARK   68  A    between atoms: _178  and  _179
REMARK   69  A    between atoms: _183  and  ZN_369
REMARK   70  A    between atoms: _184  and  _186
REMARK   71  A    between atoms: _186  and  _187
REMARK   72  A    between atoms: _186  and  _189
REMARK   73  A    between atoms: _189  and  _190
REMARK   74  A    between atoms: _190  and  _191
REMARK   75  A    between atoms: _194  and  _196
REMARK   76  A    between atoms: _196  and  _197
REMARK   77  A    between atoms: _196  and  _199
REMARK   78  A    between atoms: _199  and  _200
REMARK   79  A    between atoms: _203  and  _205
REMARK   80  A    between atoms: _205  and  _206
REMARK   81  A    between atoms: _205  and  _208
REMARK   82  A    between atoms: _208  and  _209
REMARK   83  A    between atoms: _213  and  ZN_369
REMARK   84  A    between atoms: _214  and  _216
REMARK   85  A    between atoms: _216  and  _217
REMARK   86  A    between atoms: _216  and  _219
REMARK   87  A    between atoms: _219  and  _220
REMARK   88  A    between atoms: _225  and  _226
REMARK   89  A    between atoms: _228  and  _230
REMARK   90  A    between atoms: _230  and  _231
REMARK   91  A    between atoms: _230  and  _233
REMARK   92  A    between atoms: _233  and  _234
REMARK   93  A    between atoms: _239  and  _241
REMARK   94  A    between atoms: _241  and  _242
REMARK   95  A    between atoms: _241  and  _244
REMARK   96  A    between atoms: _244  and  _245
REMARK   97  A    between atoms: _245  and  _246
REMARK   98  A    between atoms: _246  and  _248
REMARK   99  A    between atoms: _248  and  ZN_369
REMARK  100  A    between atoms: _249  and  _251
REMARK  101  A    between atoms: _251  and  _252
REMARK  102  A    between atoms: _251  and  _254
REMARK  103  A    between atoms: _254  and  _255
REMARK  104  A    between atoms: _257  and  _259
REMARK  105  A    between atoms: _259  and  _260
REMARK  106  A    between atoms: _259  and  _262
REMARK  107  A    between atoms: _262  and  _263
REMARK  108  A    between atoms: _266  and  _268
REMARK  109  A    between atoms: _268  and  _269
REMARK  110  A    between atoms: _271  and  _273
REMARK  111  A    between atoms: _273  and  _274
REMARK  112  A    between atoms: _273  and  _276
REMARK  113  A    between atoms: _276  and  _277
REMARK  114  A    between atoms: _280  and  _282
REMARK  115  A    between atoms: _282  and  _283
REMARK  116  A    between atoms: _285  and  _287
REMARK  117  A    between atoms: _287  and  _288
REMARK  118  A    between atoms: _287  and  _290
REMARK  119  A    between atoms: _293  and  _295
REMARK  120  A    between atoms: _295  and  _296
REMARK  121  A    between atoms: _295  and  _298
REMARK  122  A    between atoms: _298  and  _299
REMARK  123  A    between atoms: _304  and  _305
REMARK  124  A    between atoms: _307  and  _309
REMARK  125  A    between atoms: _309  and  _310
REMARK  126  A    between atoms: _309  and  _312
REMARK  127  A    between atoms: _312  and  _313
REMARK  128  A    between atoms: _316  and  _318
REMARK  129  A    between atoms: _318  and  _319
REMARK  130  A    between atoms: _318  and  _321
REMARK  131  A    between atoms: _321  and  _322
REMARK  132  A    between atoms: _322  and  _323
REMARK  133  A    between atoms: _323  and  _324
REMARK  134  A    between atoms: _333  and  _335
REMARK  135  A    between atoms: _335  and  _336
REMARK  136  A    between atoms: _335  and  _338
REMARK  137  A    between atoms: _338  and  _339
REMARK  138  A    between atoms: _342  and  _344
REMARK  139  A    between atoms: _344  and  _345
REMARK  140  A    between atoms: _344  and  _347
REMARK  141  A    between atoms: _350  and  _352
REMARK  142  A    between atoms: _352  and  _353
REMARK  143  A    between atoms: _352  and  _355
REMARK  144  A    between atoms: _355  and  _356
REMARK  145  A    between atoms: _361  and  _363
REMARK  146  A    between atoms: _363  and  _364
REMARK  147  A    between atoms: _363  and  _366
REMARK  148  A    between atoms: _366  and  _367
REMARK                            x       y       z     vdW  Elec       q    Type
REMARK                         _______ _______ _______ _____ _____    ______ ____
ROOT
ATOM      1  O   HOH     1      32.541  42.951 -10.494  0.00  0.00    +0.000 OA
ENDROOT
TORSDOF 0
REMARK  Name = ../refined-set-2016/3fcq/3fcq_pocket.pdb
REMARK  148 active torsions:
REMARK  status: ('A' for Active; 'I' for Inactive)
REMARK    1  A    between atoms: _1  and  _3
REMARK    2  A    between atoms: _3  and  _4
REMARK    3  A    between atoms: _3  and  _6
REMARK    4  A    between atoms: _6  and  _7
REMARK    5  A    between atoms: _12  and  _13
REMARK    6  A    between atoms: _15  and  _17
REMARK    7  A    between atoms: _17  and  _18
REMARK    8  A    between atoms: _17  and  _20
REMARK    9  A    between atoms: _20  and  _21
REMARK   10  A    between atoms: _26  and  _28
REMARK   11  A    between atoms: _28  and  _29
REMARK   12  A    between atoms: _28  and  _31
REMARK   13  A    between atoms: _31  and  _32
REMARK   14  A    between atoms: _37  and  _39
REMARK   15  A    between atoms: _39  and  _40
REMARK   16  A    between atoms: _43  and  _45
REMARK   17  A    between atoms: _45  and  _46
REMARK   18  A    between atoms: _45  and  _48
REMARK   19  A    between atoms: _48  and  _49
REMARK   20  A    between atoms: _55  and  _57
REMARK   21  A    between atoms: _57  and  _58
REMARK   22  A    between atoms: _57  and  _60
REMARK   23  A    between atoms: _60  and  _61
REMARK   24  A    between atoms: _71  and  _73
REMARK   25  A    between atoms: _73  and  _74
REMARK   26  A    between atoms: _73  and  _76
REMARK   27  A    between atoms: _76  and  _77
REMARK   28  A    between atoms: _77  and  _78
REMARK   29  A    between atoms: _80  and  _82
REMARK   30  A    between atoms: _82  and  _83
REMARK   31  A    between atoms: _82  and  _85
REMARK   32  A    between atoms: _88  and  _90
REMARK   33  A    between atoms: _90  and  _91
REMARK   34  A    between atoms: _90  and  _93
REMARK   35  A    between atoms: _93  and  _94
REMARK   36  A    between atoms: _99  and  _100
REMARK   37  A    between atoms: _102  and  _104
REMARK   38  A    between atoms: _104  and  _105
REMARK   39  A    between atoms: _107  and  _109
REMARK   40  A    between atoms: _109  and  _110
REMARK   41  A    between atoms: _109  and  _112
REMARK   42  A    between atoms: _112  and  _113
REMARK   43  A    between atoms: _116  and  _118
REMARK   44  A    between atoms: _118  and  _119
REMARK   45  A    between atoms: _118  and  _121
REMARK   46  A    between atoms: _121  and  _122
REMARK   47  A    between atoms: _128  and  _130
REMARK   48  A    between atoms: _130  and  _131
REMARK   49  A    between atoms: _130  and  _133
REMARK   50  A    between atoms: _133  and  _134
REMARK   51  A    between atoms: _137  and  _139
REMARK   52  A    between atoms: _139  and  _140
REMARK   53  A    between atoms: _142  and  _144
REMARK   54  A    between atoms: _144  and  _145
REMARK   55  A    between atoms: _144  and  _147
REMARK   56  A    between atoms: _147  and  _148
REMARK   57  A    between atoms: _151  and  _153
REMARK   58  A    between atoms: _153  and  _154
REMARK   59  A    between atoms: _153  and  _156
REMARK   60  A    between atoms: _159  and  _161
REMARK   61  A    between atoms: _161  and  _162
REMARK   62  A    between atoms: _161  and  _164
REMARK   63  A    between atoms: _167  and  _169
REMARK   64  A    between atoms: _169  and  _170
REMARK   65  A    between atoms: _173  and  _175
REMARK   66  A    between atoms: _175  and  _176
REMARK   67  A    between atoms: _175  and  _178
REMARK   68  A    between atoms: _178  and  _179
REMARK   69  A    between atoms: _183  and  ZN_369
REMARK   70  A    between atoms: _184  and  _186
REMARK   71  A    between atoms: _186  and  _187
REMARK   72  A    between atoms: _186  and  _189
REMARK   73  A    between atoms: _189  and  _190
REMARK   74  A    between atoms: _190  and  _191
REMARK   75  A    between atoms: _194  and  _196
REMARK   76  A    between atoms: _196  and  _197
REMARK   77  A    between atoms: _196  and  _199
REMARK   78  A    between atoms: _199  and  _200
REMARK   79  A    between atoms: _203  and  _205
REMARK   80  A    between atoms: _205  and  _206
REMARK   81  A    between atoms: _205  and  _208
REMARK   82  A    between atoms: _208  and  _209
REMARK   83  A    between atoms: _213  and  ZN_369
REMARK   84  A    between atoms: _214  and  _216
REMARK   85  A    between atoms: _216  and  _217
REMARK   86  A    between atoms: _216  and  _219
REMARK   87  A    between atoms: _219  and  _220
REMARK   88  A    between atoms: _225  and  _226
REMARK   89  A    between atoms: _228  and  _230
REMARK   90  A    between atoms: _230  and  _231
REMARK   91  A    between atoms: _230  and  _233
REMARK   92  A    between atoms: _233  and  _234
REMARK   93  A    between atoms: _239  and  _241
REMARK   94  A    between atoms: _241  and  _242
REMARK   95  A    between atoms: _241  and  _244
REMARK   96  A    between atoms: _244  and  _245
REMARK   97  A    between atoms: _245  and  _246
REMARK   98  A    between atoms: _246  and  _248
REMARK   99  A    between atoms: _248  and  ZN_369
REMARK  100  A    between atoms: _249  and  _251
REMARK  101  A    between atoms: _251  and  _252
REMARK  102  A    between atoms: _251  and  _254
REMARK  103  A    between atoms: _254  and  _255
REMARK  104  A    between atoms: _257  and  _259
REMARK  105  A    between atoms: _259  and  _260
REMARK  106  A    between atoms: _259  and  _262
REMARK  107  A    between atoms: _262  and  _263
REMARK  108  A    between atoms: _266  and  _268
REMARK  109  A    between atoms: _268  and  _269
REMARK  110  A    between atoms: _271  and  _273
REMARK  111  A    between atoms: _273  and  _274
REMARK  112  A    between atoms: _273  and  _276
REMARK  113  A    between atoms: _276  and  _277
REMARK  114  A    between atoms: _280  and  _282
REMARK  115  A    between atoms: _282  and  _283
REMARK  116  A    between atoms: _285  and  _287
REMARK  117  A    between atoms: _287  and  _288
REMARK  118  A    between atoms: _287  and  _290
REMARK  119  A    between atoms: _293  and  _295
REMARK  120  A    between atoms: _295  and  _296
REMARK  121  A    between atoms: _295  and  _298
REMARK  122  A    between atoms: _298  and  _299
REMARK  123  A    between atoms: _304  and  _305
REMARK  124  A    between atoms: _307  and  _309
REMARK  125  A    between atoms: _309  and  _310
REMARK  126  A    between atoms: _309  and  _312
REMARK  127  A    between atoms: _312  and  _313
REMARK  128  A    between atoms: _316  and  _318
REMARK  129  A    between atoms: _318  and  _319
REMARK  130  A    between atoms: _318  and  _321
REMARK  131  A    between atoms: _321  and  _322
REMARK  132  A    between atoms: _322  and  _323
REMARK  133  A    between atoms: _323  and  _324
REMARK  134  A    between atoms: _333  and  _335
REMARK  135  A    between atoms: _335  and  _336
REMARK  136  A    between atoms: _335  and  _338
REMARK  137  A    between atoms: _338  and  _339
REMARK  138  A    between atoms: _342  and  _344
REMARK  139  A    between atoms: _344  and  _345
REMARK  140  A    between atoms: _344  and  _347
REMARK  141  A    between atoms: _350  and  _352
REMARK  142  A    between atoms: _352  and  _353
REMARK  143  A    between atoms: _352  and  _355
REMARK  144  A    between atoms: _355  and  _356
REMARK  145  A    between atoms: _361  and  _363
REMARK  146  A    between atoms: _363  and  _364
REMARK  147  A    between atoms: _363  and  _366
REMARK  148  A    between atoms: _366  and  _367
REMARK                            x       y       z     vdW  Elec       q    Type
REMARK                         _______ _______ _______ _____ _____    ______ ____
ROOT
ATOM      1  O   HOH     1      38.002  37.093 -10.902  0.00  0.00    +0.000 OA
ENDROOT
TORSDOF 0
REMARK  Name = ../refined-set-2016/3fcq/3fcq_pocket.pdb
REMARK  148 active torsions:
REMARK  status: ('A' for Active; 'I' for Inactive)
REMARK    1  A    between atoms: _1  and  _3
REMARK    2  A    between atoms: _3  and  _4
REMARK    3  A    between atoms: _3  and  _6
REMARK    4  A    between atoms: _6  and  _7
REMARK    5  A    between atoms: _12  and  _13
REMARK    6  A    between atoms: _15  and  _17
REMARK    7  A    between atoms: _17  and  _18
REMARK    8  A    between atoms: _17  and  _20
REMARK    9  A    between atoms: _20  and  _21
REMARK   10  A    between atoms: _26  and  _28
REMARK   11  A    between atoms: _28  and  _29
REMARK   12  A    between atoms: _28  and  _31
REMARK   13  A    between atoms: _31  and  _32
REMARK   14  A    between atoms: _37  and  _39
REMARK   15  A    between atoms: _39  and  _40
REMARK   16  A    between atoms: _43  and  _45
REMARK   17  A    between atoms: _45  and  _46
REMARK   18  A    between atoms: _45  and  _48
REMARK   19  A    between atoms: _48  and  _49
REMARK   20  A    between atoms: _55  and  _57
REMARK   21  A    between atoms: _57  and  _58
REMARK   22  A    between atoms: _57  and  _60
REMARK   23  A    between atoms: _60  and  _61
REMARK   24  A    between atoms: _71  and  _73
REMARK   25  A    between atoms: _73  and  _74
REMARK   26  A    between atoms: _73  and  _76
REMARK   27  A    between atoms: _76  and  _77
REMARK   28  A    between atoms: _77  and  _78
REMARK   29  A    between atoms: _80  and  _82
REMARK   30  A    between atoms: _82  and  _83
REMARK   31  A    between atoms: _82  and  _85
REMARK   32  A    between atoms: _88  and  _90
REMARK   33  A    between atoms: _90  and  _91
REMARK   34  A    between atoms: _90  and  _93
REMARK   35  A    between atoms: _93  and  _94
REMARK   36  A    between atoms: _99  and  _100
REMARK   37  A    between atoms: _102  and  _104
REMARK   38  A    between atoms: _104  and  _105
REMARK   39  A    between atoms: _107  and  _109
REMARK   40  A    between atoms: _109  and  _110
REMARK   41  A    between atoms: _109  and  _112
REMARK   42  A    between atoms: _112  and  _113
REMARK   43  A    between atoms: _116  and  _118
REMARK   44  A    between atoms: _118  and  _119
REMARK   45  A    between atoms: _118  and  _121
REMARK   46  A    between atoms: _121  and  _122
REMARK   47  A    between atoms: _128  and  _130
REMARK   48  A    between atoms: _130  and  _131
REMARK   49  A    between atoms: _130  and  _133
REMARK   50  A    between atoms: _133  and  _134
REMARK   51  A    between atoms: _137  and  _139
REMARK   52  A    between atoms: _139  and  _140
REMARK   53  A    between atoms: _142  and  _144
REMARK   54  A    between atoms: _144  and  _145
REMARK   55  A    between atoms: _144  and  _147
REMARK   56  A    between atoms: _147  and  _148
REMARK   57  A    between atoms: _151  and  _153
REMARK   58  A    between atoms: _153  and  _154
REMARK   59  A    between atoms: _153  and  _156
REMARK   60  A    between atoms: _159  and  _161
REMARK   61  A    between atoms: _161  and  _162
REMARK   62  A    between atoms: _161  and  _164
REMARK   63  A    between atoms: _167  and  _169
REMARK   64  A    between atoms: _169  and  _170
REMARK   65  A    between atoms: _173  and  _175
REMARK   66  A    between atoms: _175  and  _176
REMARK   67  A    between atoms: _175  and  _178
REMARK   68  A    between atoms: _178  and  _179
REMARK   69  A    between atoms: _183  and  ZN_369
REMARK   70  A    between atoms: _184  and  _186
REMARK   71  A    between atoms: _186  and  _187
REMARK   72  A    between atoms: _186  and  _189
REMARK   73  A    between atoms: _189  and  _190
REMARK   74  A    between atoms: _190  and  _191
REMARK   75  A    between atoms: _194  and  _196
REMARK   76  A    between atoms: _196  and  _197
REMARK   77  A    between atoms: _196  and  _199
REMARK   78  A    between atoms: _199  and  _200
REMARK   79  A    between atoms: _203  and  _205
REMARK   80  A    between atoms: _205  and  _206
REMARK   81  A    between atoms: _205  and  _208
REMARK   82  A    between atoms: _208  and  _209
REMARK   83  A    between atoms: _213  and  ZN_369
REMARK   84  A    between atoms: _214  and  _216
REMARK   85  A    between atoms: _216  and  _217
REMARK   86  A    between atoms: _216  and  _219
REMARK   87  A    between atoms: _219  and  _220
REMARK   88  A    between atoms: _225  and  _226
REMARK   89  A    between atoms: _228  and  _230
REMARK   90  A    between atoms: _230  and  _231
REMARK   91  A    between atoms: _230  and  _233
REMARK   92  A    between atoms: _233  and  _234
REMARK   93  A    between atoms: _239  and  _241
REMARK   94  A    between atoms: _241  and  _242
REMARK   95  A    between atoms: _241  and  _244
REMARK   96  A    between atoms: _244  and  _245
REMARK   97  A    between atoms: _245  and  _246
REMARK   98  A    between atoms: _246  and  _248
REMARK   99  A    between atoms: _248  and  ZN_369
REMARK  100  A    between atoms: _249  and  _251
REMARK  101  A    between atoms: _251  and  _252
REMARK  102  A    between atoms: _251  and  _254
REMARK  103  A    between atoms: _254  and  _255
REMARK  104  A    between atoms: _257  and  _259
REMARK  105  A    between atoms: _259  and  _260
REMARK  106  A    between atoms: _259  and  _262
REMARK  107  A    between atoms: _262  and  _263
REMARK  108  A    between atoms: _266  and  _268
REMARK  109  A    between atoms: _268  and  _269
REMARK  110  A    between atoms: _271  and  _273
REMARK  111  A    between atoms: _273  and  _274
REMARK  112  A    between atoms: _273  and  _276
REMARK  113  A    between atoms: _276  and  _277
REMARK  114  A    between atoms: _280  and  _282
REMARK  115  A    between atoms: _282  and  _283
REMARK  116  A    between atoms: _285  and  _287
REMARK  117  A    between atoms: _287  and  _288
REMARK  118  A    between atoms: _287  and  _290
REMARK  119  A    between atoms: _293  and  _295
REMARK  120  A    between atoms: _295  and  _296
REMARK  121  A    between atoms: _295  and  _298
REMARK  122  A    between atoms: _298  and  _299
REMARK  123  A    between atoms: _304  and  _305
REMARK  124  A    between atoms: _307  and  _309
REMARK  125  A    between atoms: _309  and  _310
REMARK  126  A    between atoms: _309  and  _312
REMARK  127  A    between atoms: _312  and  _313
REMARK  128  A    between atoms: _316  and  _318
REMARK  129  A    between atoms: _318  and  _319
REMARK  130  A    between atoms: _318  and  _321
REMARK  131  A    between atoms: _321  and  _322
REMARK  132  A    between atoms: _322  and  _323
REMARK  133  A    between atoms: _323  and  _324
REMARK  134  A    between atoms: _333  and  _335
REMARK  135  A    between atoms: _335  and  _336
REMARK  136  A    between atoms: _335  and  _338
REMARK  137  A    between atoms: _338  and  _339
REMARK  138  A    between atoms: _342  and  _344
REMARK  139  A    between atoms: _344  and  _345
REMARK  140  A    between atoms: _344  and  _347
REMARK  141  A    between atoms: _350  and  _352
REMARK  142  A    between atoms: _352  and  _353
REMARK  143  A    between atoms: _352  and  _355
REMARK  144  A    between atoms: _355  and  _356
REMARK  145  A    between atoms: _361  and  _363
REMARK  146  A    between atoms: _363  and  _364
REMARK  147  A    between atoms: _363  and  _366
REMARK  148  A    between atoms: _366  and  _367
REMARK                            x       y       z     vdW  Elec       q    Type
REMARK                         _______ _______ _______ _____ _____    ______ ____
ROOT
ATOM      1  O   HOH     1      34.813  39.965  -8.716  0.00  0.00    +0.000 OA
ENDROOT
TORSDOF 0
REMARK  Name = ../refined-set-2016/3fcq/3fcq_pocket.pdb
REMARK  148 active torsions:
REMARK  status: ('A' for Active; 'I' for Inactive)
REMARK    1  A    between atoms: _1  and  _3
REMARK    2  A    between atoms: _3  and  _4
REMARK    3  A    between atoms: _3  and  _6
REMARK    4  A    between atoms: _6  and  _7
REMARK    5  A    between atoms: _12  and  _13
REMARK    6  A    between atoms: _15  and  _17
REMARK    7  A    between atoms: _17  and  _18
REMARK    8  A    between atoms: _17  and  _20
REMARK    9  A    between atoms: _20  and  _21
REMARK   10  A    between atoms: _26  and  _28
REMARK   11  A    between atoms: _28  and  _29
REMARK   12  A    between atoms: _28  and  _31
REMARK   13  A    between atoms: _31  and  _32
REMARK   14  A    between atoms: _37  and  _39
REMARK   15  A    between atoms: _39  and  _40
REMARK   16  A    between atoms: _43  and  _45
REMARK   17  A    between atoms: _45  and  _46
REMARK   18  A    between atoms: _45  and  _48
REMARK   19  A    between atoms: _48  and  _49
REMARK   20  A    between atoms: _55  and  _57
REMARK   21  A    between atoms: _57  and  _58
REMARK   22  A    between atoms: _57  and  _60
REMARK   23  A    between atoms: _60  and  _61
REMARK   24  A    between atoms: _71  and  _73
REMARK   25  A    between atoms: _73  and  _74
REMARK   26  A    between atoms: _73  and  _76
REMARK   27  A    between atoms: _76  and  _77
REMARK   28  A    between atoms: _77  and  _78
REMARK   29  A    between atoms: _80  and  _82
REMARK   30  A    between atoms: _82  and  _83
REMARK   31  A    between atoms: _82  and  _85
REMARK   32  A    between atoms: _88  and  _90
REMARK   33  A    between atoms: _90  and  _91
REMARK   34  A    between atoms: _90  and  _93
REMARK   35  A    between atoms: _93  and  _94
REMARK   36  A    between atoms: _99  and  _100
REMARK   37  A    between atoms: _102  and  _104
REMARK   38  A    between atoms: _104  and  _105
REMARK   39  A    between atoms: _107  and  _109
REMARK   40  A    between atoms: _109  and  _110
REMARK   41  A    between atoms: _109  and  _112
REMARK   42  A    between atoms: _112  and  _113
REMARK   43  A    between atoms: _116  and  _118
REMARK   44  A    between atoms: _118  and  _119
REMARK   45  A    between atoms: _118  and  _121
REMARK   46  A    between atoms: _121  and  _122
REMARK   47  A    between atoms: _128  and  _130
REMARK   48  A    between atoms: _130  and  _131
REMARK   49  A    between atoms: _130  and  _133
REMARK   50  A    between atoms: _133  and  _134
REMARK   51  A    between atoms: _137  and  _139
REMARK   52  A    between atoms: _139  and  _140
REMARK   53  A    between atoms: _142  and  _144
REMARK   54  A    between atoms: _144  and  _145
REMARK   55  A    between atoms: _144  and  _147
REMARK   56  A    between atoms: _147  and  _148
REMARK   57  A    between atoms: _151  and  _153
REMARK   58  A    between atoms: _153  and  _154
REMARK   59  A    between atoms: _153  and  _156
REMARK   60  A    between atoms: _159  and  _161
REMARK   61  A    between atoms: _161  and  _162
REMARK   62  A    between atoms: _161  and  _164
REMARK   63  A    between atoms: _167  and  _169
REMARK   64  A    between atoms: _169  and  _170
REMARK   65  A    between atoms: _173  and  _175
REMARK   66  A    between atoms: _175  and  _176
REMARK   67  A    between atoms: _175  and  _178
REMARK   68  A    between atoms: _178  and  _179
REMARK   69  A    between atoms: _183  and  ZN_369
REMARK   70  A    between atoms: _184  and  _186
REMARK   71  A    between atoms: _186  and  _187
REMARK   72  A    between atoms: _186  and  _189
REMARK   73  A    between atoms: _189  and  _190
REMARK   74  A    between atoms: _190  and  _191
REMARK   75  A    between atoms: _194  and  _196
REMARK   76  A    between atoms: _196  and  _197
REMARK   77  A    between atoms: _196  and  _199
REMARK   78  A    between atoms: _199  and  _200
REMARK   79  A    between atoms: _203  and  _205
REMARK   80  A    between atoms: _205  and  _206
REMARK   81  A    between atoms: _205  and  _208
REMARK   82  A    between atoms: _208  and  _209
REMARK   83  A    between atoms: _213  and  ZN_369
REMARK   84  A    between atoms: _214  and  _216
REMARK   85  A    between atoms: _216  and  _217
REMARK   86  A    between atoms: _216  and  _219
REMARK   87  A    between atoms: _219  and  _220
REMARK   88  A    between atoms: _225  and  _226
REMARK   89  A    between atoms: _228  and  _230
REMARK   90  A    between atoms: _230  and  _231
REMARK   91  A    between atoms: _230  and  _233
REMARK   92  A    between atoms: _233  and  _234
REMARK   93  A    between atoms: _239  and  _241
REMARK   94  A    between atoms: _241  and  _242
REMARK   95  A    between atoms: _241  and  _244
REMARK   96  A    between atoms: _244  and  _245
REMARK   97  A    between atoms: _245  and  _246
REMARK   98  A    between atoms: _246  and  _248
REMARK   99  A    between atoms: _248  and  ZN_369
REMARK  100  A    between atoms: _249  and  _251
REMARK  101  A    between atoms: _251  and  _252
REMARK  102  A    between atoms: _251  and  _254
REMARK  103  A    between atoms: _254  and  _255
REMARK  104  A    between atoms: _257  and  _259
REMARK  105  A    between atoms: _259  and  _260
REMARK  106  A    between atoms: _259  and  _262
REMARK  107  A    between atoms: _262  and  _263
REMARK  108  A    between atoms: _266  and  _268
REMARK  109  A    between atoms: _268  and  _269
REMARK  110  A    between atoms: _271  and  _273
REMARK  111  A    between atoms: _273  and  _274
REMARK  112  A    between atoms: _273  and  _276
REMARK  113  A    between atoms: _276  and  _277
REMARK  114  A    between atoms: _280  and  _282
REMARK  115  A    between atoms: _282  and  _283
REMARK  116  A    between atoms: _285  and  _287
REMARK  117  A    between atoms: _287  and  _288
REMARK  118  A    between atoms: _287  and  _290
REMARK  119  A    between atoms: _293  and  _295
REMARK  120  A    between atoms: _295  and  _296
REMARK  121  A    between atoms: _295  and  _298
REMARK  122  A    between atoms: _298  and  _299
REMARK  123  A    between atoms: _304  and  _305
REMARK  124  A    between atoms: _307  and  _309
REMARK  125  A    between atoms: _309  and  _310
REMARK  126  A    between atoms: _309  and  _312
REMARK  127  A    between atoms: _312  and  _313
REMARK  128  A    between atoms: _316  and  _318
REMARK  129  A    between atoms: _318  and  _319
REMARK  130  A    between atoms: _318  and  _321
REMARK  131  A    between atoms: _321  and  _322
REMARK  132  A    between atoms: _322  and  _323
REMARK  133  A    between atoms: _323  and  _324
REMARK  134  A    between atoms: _333  and  _335
REMARK  135  A    between atoms: _335  and  _336
REMARK  136  A    between atoms: _335  and  _338
REMARK  137  A    between atoms: _338  and  _339
REMARK  138  A    between atoms: _342  and  _344
REMARK  139  A    between atoms: _344  and  _345
REMARK  140  A    between atoms: _344  and  _347
REMARK  141  A    between atoms: _350  and  _352
REMARK  142  A    between atoms: _352  and  _353
REMARK  143  A    between atoms: _352  and  _355
REMARK  144  A    between atoms: _355  and  _356
REMARK  145  A    between atoms: _361  and  _363
REMARK  146  A    between atoms: _363  and  _364
REMARK  147  A    between atoms: _363  and  _366
REMARK  148  A    between atoms: _366  and  _367
REMARK                            x       y       z     vdW  Elec       q    Type
REMARK                         _______ _______ _______ _____ _____    ______ ____
ROOT
ATOM      1  O   HOH     1      43.295  39.343  -3.603  0.00  0.00    +0.000 OA
ENDROOT
TORSDOF 0
REMARK  Name = ../refined-set-2016/3fcq/3fcq_pocket.pdb
REMARK  148 active torsions:
REMARK  status: ('A' for Active; 'I' for Inactive)
REMARK    1  A    between atoms: _1  and  _3
REMARK    2  A    between atoms: _3  and  _4
REMARK    3  A    between atoms: _3  and  _6
REMARK    4  A    between atoms: _6  and  _7
REMARK    5  A    between atoms: _12  and  _13
REMARK    6  A    between atoms: _15  and  _17
REMARK    7  A    between atoms: _17  and  _18
REMARK    8  A    between atoms: _17  and  _20
REMARK    9  A    between atoms: _20  and  _21
REMARK   10  A    between atoms: _26  and  _28
REMARK   11  A    between atoms: _28  and  _29
REMARK   12  A    between atoms: _28  and  _31
REMARK   13  A    between atoms: _31  and  _32
REMARK   14  A    between atoms: _37  and  _39
REMARK   15  A    between atoms: _39  and  _40
REMARK   16  A    between atoms: _43  and  _45
REMARK   17  A    between atoms: _45  and  _46
REMARK   18  A    between atoms: _45  and  _48
REMARK   19  A    between atoms: _48  and  _49
REMARK   20  A    between atoms: _55  and  _57
REMARK   21  A    between atoms: _57  and  _58
REMARK   22  A    between atoms: _57  and  _60
REMARK   23  A    between atoms: _60  and  _61
REMARK   24  A    between atoms: _71  and  _73
REMARK   25  A    between atoms: _73  and  _74
REMARK   26  A    between atoms: _73  and  _76
REMARK   27  A    between atoms: _76  and  _77
REMARK   28  A    between atoms: _77  and  _78
REMARK   29  A    between atoms: _80  and  _82
REMARK   30  A    between atoms: _82  and  _83
REMARK   31  A    between atoms: _82  and  _85
REMARK   32  A    between atoms: _88  and  _90
REMARK   33  A    between atoms: _90  and  _91
REMARK   34  A    between atoms: _90  and  _93
REMARK   35  A    between atoms: _93  and  _94
REMARK   36  A    between atoms: _99  and  _100
REMARK   37  A    between atoms: _102  and  _104
REMARK   38  A    between atoms: _104  and  _105
REMARK   39  A    between atoms: _107  and  _109
REMARK   40  A    between atoms: _109  and  _110
REMARK   41  A    between atoms: _109  and  _112
REMARK   42  A    between atoms: _112  and  _113
REMARK   43  A    between atoms: _116  and  _118
REMARK   44  A    between atoms: _118  and  _119
REMARK   45  A    between atoms: _118  and  _121
REMARK   46  A    between atoms: _121  and  _122
REMARK   47  A    between atoms: _128  and  _130
REMARK   48  A    between atoms: _130  and  _131
REMARK   49  A    between atoms: _130  and  _133
REMARK   50  A    between atoms: _133  and  _134
REMARK   51  A    between atoms: _137  and  _139
REMARK   52  A    between atoms: _139  and  _140
REMARK   53  A    between atoms: _142  and  _144
REMARK   54  A    between atoms: _144  and  _145
REMARK   55  A    between atoms: _144  and  _147
REMARK   56  A    between atoms: _147  and  _148
REMARK   57  A    between atoms: _151  and  _153
REMARK   58  A    between atoms: _153  and  _154
REMARK   59  A    between atoms: _153  and  _156
REMARK   60  A    between atoms: _159  and  _161
REMARK   61  A    between atoms: _161  and  _162
REMARK   62  A    between atoms: _161  and  _164
REMARK   63  A    between atoms: _167  and  _169
REMARK   64  A    between atoms: _169  and  _170
REMARK   65  A    between atoms: _173  and  _175
REMARK   66  A    between atoms: _175  and  _176
REMARK   67  A    between atoms: _175  and  _178
REMARK   68  A    between atoms: _178  and  _179
REMARK   69  A    between atoms: _183  and  ZN_369
REMARK   70  A    between atoms: _184  and  _186
REMARK   71  A    between atoms: _186  and  _187
REMARK   72  A    between atoms: _186  and  _189
REMARK   73  A    between atoms: _189  and  _190
REMARK   74  A    between atoms: _190  and  _191
REMARK   75  A    between atoms: _194  and  _196
REMARK   76  A    between atoms: _196  and  _197
REMARK   77  A    between atoms: _196  and  _199
REMARK   78  A    between atoms: _199  and  _200
REMARK   79  A    between atoms: _203  and  _205
REMARK   80  A    between atoms: _205  and  _206
REMARK   81  A    between atoms: _205  and  _208
REMARK   82  A    between atoms: _208  and  _209
REMARK   83  A    between atoms: _213  and  ZN_369
REMARK   84  A    between atoms: _214  and  _216
REMARK   85  A    between atoms: _216  and  _217
REMARK   86  A    between atoms: _216  and  _219
REMARK   87  A    between atoms: _219  and  _220
REMARK   88  A    between atoms: _225  and  _226
REMARK   89  A    between atoms: _228  and  _230
REMARK   90  A    between atoms: _230  and  _231
REMARK   91  A    between atoms: _230  and  _233
REMARK   92  A    between atoms: _233  and  _234
REMARK   93  A    between atoms: _239  and  _241
REMARK   94  A    between atoms: _241  and  _242
REMARK   95  A    between atoms: _241  and  _244
REMARK   96  A    between atoms: _244  and  _245
REMARK   97  A    between atoms: _245  and  _246
REMARK   98  A    between atoms: _246  and  _248
REMARK   99  A    between atoms: _248  and  ZN_369
REMARK  100  A    between atoms: _249  and  _251
REMARK  101  A    between atoms: _251  and  _252
REMARK  102  A    between atoms: _251  and  _254
REMARK  103  A    between atoms: _254  and  _255
REMARK  104  A    between atoms: _257  and  _259
REMARK  105  A    between atoms: _259  and  _260
REMARK  106  A    between atoms: _259  and  _262
REMARK  107  A    between atoms: _262  and  _263
REMARK  108  A    between atoms: _266  and  _268
REMARK  109  A    between atoms: _268  and  _269
REMARK  110  A    between atoms: _271  and  _273
REMARK  111  A    between atoms: _273  and  _274
REMARK  112  A    between atoms: _273  and  _276
REMARK  113  A    between atoms: _276  and  _277
REMARK  114  A    between atoms: _280  and  _282
REMARK  115  A    between atoms: _282  and  _283
REMARK  116  A    between atoms: _285  and  _287
REMARK  117  A    between atoms: _287  and  _288
REMARK  118  A    between atoms: _287  and  _290
REMARK  119  A    between atoms: _293  and  _295
REMARK  120  A    between atoms: _295  and  _296
REMARK  121  A    between atoms: _295  and  _298
REMARK  122  A    between atoms: _298  and  _299
REMARK  123  A    between atoms: _304  and  _305
REMARK  124  A    between atoms: _307  and  _309
REMARK  125  A    between atoms: _309  and  _310
REMARK  126  A    between atoms: _309  and  _312
REMARK  127  A    between atoms: _312  and  _313
REMARK  128  A    between atoms: _316  and  _318
REMARK  129  A    between atoms: _318  and  _319
REMARK  130  A    between atoms: _318  and  _321
REMARK  131  A    between atoms: _321  and  _322
REMARK  132  A    between atoms: _322  and  _323
REMARK  133  A    between atoms: _323  and  _324
REMARK  134  A    between atoms: _333  and  _335
REMARK  135  A    between atoms: _335  and  _336
REMARK  136  A    between atoms: _335  and  _338
REMARK  137  A    between atoms: _338  and  _339
REMARK  138  A    between atoms: _342  and  _344
REMARK  139  A    between atoms: _344  and  _345
REMARK  140  A    between atoms: _344  and  _347
REMARK  141  A    between atoms: _350  and  _352
REMARK  142  A    between atoms: _352  and  _353
REMARK  143  A    between atoms: _352  and  _355
REMARK  144  A    between atoms: _355  and  _356
REMARK  145  A    between atoms: _361  and  _363
REMARK  146  A    between atoms: _363  and  _364
REMARK  147  A    between atoms: _363  and  _366
REMARK  148  A    between atoms: _366  and  _367
REMARK                            x       y       z     vdW  Elec       q    Type
REMARK                         _______ _______ _______ _____ _____    ______ ____
ROOT
ATOM      1  O   HOH     1      37.039  34.930  -1.432  0.00  0.00    +0.000 OA
ENDROOT
TORSDOF 0
REMARK  Name = ../refined-set-2016/3fcq/3fcq_pocket.pdb
REMARK  148 active torsions:
REMARK  status: ('A' for Active; 'I' for Inactive)
REMARK    1  A    between atoms: _1  and  _3
REMARK    2  A    between atoms: _3  and  _4
REMARK    3  A    between atoms: _3  and  _6
REMARK    4  A    between atoms: _6  and  _7
REMARK    5  A    between atoms: _12  and  _13
REMARK    6  A    between atoms: _15  and  _17
REMARK    7  A    between atoms: _17  and  _18
REMARK    8  A    between atoms: _17  and  _20
REMARK    9  A    between atoms: _20  and  _21
REMARK   10  A    between atoms: _26  and  _28
REMARK   11  A    between atoms: _28  and  _29
REMARK   12  A    between atoms: _28  and  _31
REMARK   13  A    between atoms: _31  and  _32
REMARK   14  A    between atoms: _37  and  _39
REMARK   15  A    between atoms: _39  and  _40
REMARK   16  A    between atoms: _43  and  _45
REMARK   17  A    between atoms: _45  and  _46
REMARK   18  A    between atoms: _45  and  _48
REMARK   19  A    between atoms: _48  and  _49
REMARK   20  A    between atoms: _55  and  _57
REMARK   21  A    between atoms: _57  and  _58
REMARK   22  A    between atoms: _57  and  _60
REMARK   23  A    between atoms: _60  and  _61
REMARK   24  A    between atoms: _71  and  _73
REMARK   25  A    between atoms: _73  and  _74
REMARK   26  A    between atoms: _73  and  _76
REMARK   27  A    between atoms: _76  and  _77
REMARK   28  A    between atoms: _77  and  _78
REMARK   29  A    between atoms: _80  and  _82
REMARK   30  A    between atoms: _82  and  _83
REMARK   31  A    between atoms: _82  and  _85
REMARK   32  A    between atoms: _88  and  _90
REMARK   33  A    between atoms: _90  and  _91
REMARK   34  A    between atoms: _90  and  _93
REMARK   35  A    between atoms: _93  and  _94
REMARK   36  A    between atoms: _99  and  _100
REMARK   37  A    between atoms: _102  and  _104
REMARK   38  A    between atoms: _104  and  _105
REMARK   39  A    between atoms: _107  and  _109
REMARK   40  A    between atoms: _109  and  _110
REMARK   41  A    between atoms: _109  and  _112
REMARK   42  A    between atoms: _112  and  _113
REMARK   43  A    between atoms: _116  and  _118
REMARK   44  A    between atoms: _118  and  _119
REMARK   45  A    between atoms: _118  and  _121
REMARK   46  A    between atoms: _121  and  _122
REMARK   47  A    between atoms: _128  and  _130
REMARK   48  A    between atoms: _130  and  _131
REMARK   49  A    between atoms: _130  and  _133
REMARK   50  A    between atoms: _133  and  _134
REMARK   51  A    between atoms: _137  and  _139
REMARK   52  A    between atoms: _139  and  _140
REMARK   53  A    between atoms: _142  and  _144
REMARK   54  A    between atoms: _144  and  _145
REMARK   55  A    between atoms: _144  and  _147
REMARK   56  A    between atoms: _147  and  _148
REMARK   57  A    between atoms: _151  and  _153
REMARK   58  A    between atoms: _153  and  _154
REMARK   59  A    between atoms: _153  and  _156
REMARK   60  A    between atoms: _159  and  _161
REMARK   61  A    between atoms: _161  and  _162
REMARK   62  A    between atoms: _161  and  _164
REMARK   63  A    between atoms: _167  and  _169
REMARK   64  A    between atoms: _169  and  _170
REMARK   65  A    between atoms: _173  and  _175
REMARK   66  A    between atoms: _175  and  _176
REMARK   67  A    between atoms: _175  and  _178
REMARK   68  A    between atoms: _178  and  _179
REMARK   69  A    between atoms: _183  and  ZN_369
REMARK   70  A    between atoms: _184  and  _186
REMARK   71  A    between atoms: _186  and  _187
REMARK   72  A    between atoms: _186  and  _189
REMARK   73  A    between atoms: _189  and  _190
REMARK   74  A    between atoms: _190  and  _191
REMARK   75  A    between atoms: _194  and  _196
REMARK   76  A    between atoms: _196  and  _197
REMARK   77  A    between atoms: _196  and  _199
REMARK   78  A    between atoms: _199  and  _200
REMARK   79  A    between atoms: _203  and  _205
REMARK   80  A    between atoms: _205  and  _206
REMARK   81  A    between atoms: _205  and  _208
REMARK   82  A    between atoms: _208  and  _209
REMARK   83  A    between atoms: _213  and  ZN_369
REMARK   84  A    between atoms: _214  and  _216
REMARK   85  A    between atoms: _216  and  _217
REMARK   86  A    between atoms: _216  and  _219
REMARK   87  A    between atoms: _219  and  _220
REMARK   88  A    between atoms: _225  and  _226
REMARK   89  A    between atoms: _228  and  _230
REMARK   90  A    between atoms: _230  and  _231
REMARK   91  A    between atoms: _230  and  _233
REMARK   92  A    between atoms: _233  and  _234
REMARK   93  A    between atoms: _239  and  _241
REMARK   94  A    between atoms: _241  and  _242
REMARK   95  A    between atoms: _241  and  _244
REMARK   96  A    between atoms: _244  and  _245
REMARK   97  A    between atoms: _245  and  _246
REMARK   98  A    between atoms: _246  and  _248
REMARK   99  A    between atoms: _248  and  ZN_369
REMARK  100  A    between atoms: _249  and  _251
REMARK  101  A    between atoms: _251  and  _252
REMARK  102  A    between atoms: _251  and  _254
REMARK  103  A    between atoms: _254  and  _255
REMARK  104  A    between atoms: _257  and  _259
REMARK  105  A    between atoms: _259  and  _260
REMARK  106  A    between atoms: _259  and  _262
REMARK  107  A    between atoms: _262  and  _263
REMARK  108  A    between atoms: _266  and  _268
REMARK  109  A    between atoms: _268  and  _269
REMARK  110  A    between atoms: _271  and  _273
REMARK  111  A    between atoms: _273  and  _274
REMARK  112  A    between atoms: _273  and  _276
REMARK  113  A    between atoms: _276  and  _277
REMARK  114  A    between atoms: _280  and  _282
REMARK  115  A    between atoms: _282  and  _283
REMARK  116  A    between atoms: _285  and  _287
REMARK  117  A    between atoms: _287  and  _288
REMARK  118  A    between atoms: _287  and  _290
REMARK  119  A    between atoms: _293  and  _295
REMARK  120  A    between atoms: _295  and  _296
REMARK  121  A    between atoms: _295  and  _298
REMARK  122  A    between atoms: _298  and  _299
REMARK  123  A    between atoms: _304  and  _305
REMARK  124  A    between atoms: _307  and  _309
REMARK  125  A    between atoms: _309  and  _310
REMARK  126  A    between atoms: _309  and  _312
REMARK  127  A    between atoms: _312  and  _313
REMARK  128  A    between atoms: _316  and  _318
REMARK  129  A    between atoms: _318  and  _319
REMARK  130  A    between atoms: _318  and  _321
REMARK  131  A    between atoms: _321  and  _322
REMARK  132  A    between atoms: _322  and  _323
REMARK  133  A    between atoms: _323  and  _324
REMARK  134  A    between atoms: _333  and  _335
REMARK  135  A    between atoms: _335  and  _336
REMARK  136  A    between atoms: _335  and  _338
REMARK  137  A    between atoms: _338  and  _339
REMARK  138  A    between atoms: _342  and  _344
REMARK  139  A    between atoms: _344  and  _345
REMARK  140  A    between atoms: _344  and  _347
REMARK  141  A    between atoms: _350  and  _352
REMARK  142  A    between atoms: _352  and  _353
REMARK  143  A    between atoms: _352  and  _355
REMARK  144  A    between atoms: _355  and  _356
REMARK  145  A    between atoms: _361  and  _363
REMARK  146  A    between atoms: _363  and  _364
REMARK  147  A    between atoms: _363  and  _366
REMARK  148  A    between atoms: _366  and  _367
REMARK                            x       y       z     vdW  Elec       q    Type
REMARK                         _______ _______ _______ _____ _____    ______ ____
ROOT
ATOM      1  O   HOH     1      36.478  37.593  -9.254  0.00  0.00    +0.000 OA
ENDROOT
TORSDOF 0
REMARK  Name = ../refined-set-2016/3fcq/3fcq_pocket.pdb
REMARK  148 active torsions:
REMARK  status: ('A' for Active; 'I' for Inactive)
REMARK    1  A    between atoms: _1  and  _3
REMARK    2  A    between atoms: _3  and  _4
REMARK    3  A    between atoms: _3  and  _6
REMARK    4  A    between atoms: _6  and  _7
REMARK    5  A    between atoms: _12  and  _13
REMARK    6  A    between atoms: _15  and  _17
REMARK    7  A    between atoms: _17  and  _18
REMARK    8  A    between atoms: _17  and  _20
REMARK    9  A    between atoms: _20  and  _21
REMARK   10  A    between atoms: _26  and  _28
REMARK   11  A    between atoms: _28  and  _29
REMARK   12  A    between atoms: _28  and  _31
REMARK   13  A    between atoms: _31  and  _32
REMARK   14  A    between atoms: _37  and  _39
REMARK   15  A    between atoms: _39  and  _40
REMARK   16  A    between atoms: _43  and  _45
REMARK   17  A    between atoms: _45  and  _46
REMARK   18  A    between atoms: _45  and  _48
REMARK   19  A    between atoms: _48  and  _49
REMARK   20  A    between atoms: _55  and  _57
REMARK   21  A    between atoms: _57  and  _58
REMARK   22  A    between atoms: _57  and  _60
REMARK   23  A    between atoms: _60  and  _61
REMARK   24  A    between atoms: _71  and  _73
REMARK   25  A    between atoms: _73  and  _74
REMARK   26  A    between atoms: _73  and  _76
REMARK   27  A    between atoms: _76  and  _77
REMARK   28  A    between atoms: _77  and  _78
REMARK   29  A    between atoms: _80  and  _82
REMARK   30  A    between atoms: _82  and  _83
REMARK   31  A    between atoms: _82  and  _85
REMARK   32  A    between atoms: _88  and  _90
REMARK   33  A    between atoms: _90  and  _91
REMARK   34  A    between atoms: _90  and  _93
REMARK   35  A    between atoms: _93  and  _94
REMARK   36  A    between atoms: _99  and  _100
REMARK   37  A    between atoms: _102  and  _104
REMARK   38  A    between atoms: _104  and  _105
REMARK   39  A    between atoms: _107  and  _109
REMARK   40  A    between atoms: _109  and  _110
REMARK   41  A    between atoms: _109  and  _112
REMARK   42  A    between atoms: _112  and  _113
REMARK   43  A    between atoms: _116  and  _118
REMARK   44  A    between atoms: _118  and  _119
REMARK   45  A    between atoms: _118  and  _121
REMARK   46  A    between atoms: _121  and  _122
REMARK   47  A    between atoms: _128  and  _130
REMARK   48  A    between atoms: _130  and  _131
REMARK   49  A    between atoms: _130  and  _133
REMARK   50  A    between atoms: _133  and  _134
REMARK   51  A    between atoms: _137  and  _139
REMARK   52  A    between atoms: _139  and  _140
REMARK   53  A    between atoms: _142  and  _144
REMARK   54  A    between atoms: _144  and  _145
REMARK   55  A    between atoms: _144  and  _147
REMARK   56  A    between atoms: _147  and  _148
REMARK   57  A    between atoms: _151  and  _153
REMARK   58  A    between atoms: _153  and  _154
REMARK   59  A    between atoms: _153  and  _156
REMARK   60  A    between atoms: _159  and  _161
REMARK   61  A    between atoms: _161  and  _162
REMARK   62  A    between atoms: _161  and  _164
REMARK   63  A    between atoms: _167  and  _169
REMARK   64  A    between atoms: _169  and  _170
REMARK   65  A    between atoms: _173  and  _175
REMARK   66  A    between atoms: _175  and  _176
REMARK   67  A    between atoms: _175  and  _178
REMARK   68  A    between atoms: _178  and  _179
REMARK   69  A    between atoms: _183  and  ZN_369
REMARK   70  A    between atoms: _184  and  _186
REMARK   71  A    between atoms: _186  and  _187
REMARK   72  A    between atoms: _186  and  _189
REMARK   73  A    between atoms: _189  and  _190
REMARK   74  A    between atoms: _190  and  _191
REMARK   75  A    between atoms: _194  and  _196
REMARK   76  A    between atoms: _196  and  _197
REMARK   77  A    between atoms: _196  and  _199
REMARK   78  A    between atoms: _199  and  _200
REMARK   79  A    between atoms: _203  and  _205
REMARK   80  A    between atoms: _205  and  _206
REMARK   81  A    between atoms: _205  and  _208
REMARK   82  A    between atoms: _208  and  _209
REMARK   83  A    between atoms: _213  and  ZN_369
REMARK   84  A    between atoms: _214  and  _216
REMARK   85  A    between atoms: _216  and  _217
REMARK   86  A    between atoms: _216  and  _219
REMARK   87  A    between atoms: _219  and  _220
REMARK   88  A    between atoms: _225  and  _226
REMARK   89  A    between atoms: _228  and  _230
REMARK   90  A    between atoms: _230  and  _231
REMARK   91  A    between atoms: _230  and  _233
REMARK   92  A    between atoms: _233  and  _234
REMARK   93  A    between atoms: _239  and  _241
REMARK   94  A    between atoms: _241  and  _242
REMARK   95  A    between atoms: _241  and  _244
REMARK   96  A    between atoms: _244  and  _245
REMARK   97  A    between atoms: _245  and  _246
REMARK   98  A    between atoms: _246  and  _248
REMARK   99  A    between atoms: _248  and  ZN_369
REMARK  100  A    between atoms: _249  and  _251
REMARK  101  A    between atoms: _251  and  _252
REMARK  102  A    between atoms: _251  and  _254
REMARK  103  A    between atoms: _254  and  _255
REMARK  104  A    between atoms: _257  and  _259
REMARK  105  A    between atoms: _259  and  _260
REMARK  106  A    between atoms: _259  and  _262
REMARK  107  A    between atoms: _262  and  _263
REMARK  108  A    between atoms: _266  and  _268
REMARK  109  A    between atoms: _268  and  _269
REMARK  110  A    between atoms: _271  and  _273
REMARK  111  A    between atoms: _273  and  _274
REMARK  112  A    between atoms: _273  and  _276
REMARK  113  A    between atoms: _276  and  _277
REMARK  114  A    between atoms: _280  and  _282
REMARK  115  A    between atoms: _282  and  _283
REMARK  116  A    between atoms: _285  and  _287
REMARK  117  A    between atoms: _287  and  _288
REMARK  118  A    between atoms: _287  and  _290
REMARK  119  A    between atoms: _293  and  _295
REMARK  120  A    between atoms: _295  and  _296
REMARK  121  A    between atoms: _295  and  _298
REMARK  122  A    between atoms: _298  and  _299
REMARK  123  A    between atoms: _304  and  _305
REMARK  124  A    between atoms: _307  and  _309
REMARK  125  A    between atoms: _309  and  _310
REMARK  126  A    between atoms: _309  and  _312
REMARK  127  A    between atoms: _312  and  _313
REMARK  128  A    between atoms: _316  and  _318
REMARK  129  A    between atoms: _318  and  _319
REMARK  130  A    between atoms: _318  and  _321
REMARK  131  A    between atoms: _321  and  _322
REMARK  132  A    between atoms: _322  and  _323
REMARK  133  A    between atoms: _323  and  _324
REMARK  134  A    between atoms: _333  and  _335
REMARK  135  A    between atoms: _335  and  _336
REMARK  136  A    between atoms: _335  and  _338
REMARK  137  A    between atoms: _338  and  _339
REMARK  138  A    between atoms: _342  and  _344
REMARK  139  A    between atoms: _344  and  _345
REMARK  140  A    between atoms: _344  and  _347
REMARK  141  A    between atoms: _350  and  _352
REMARK  142  A    between atoms: _352  and  _353
REMARK  143  A    between atoms: _352  and  _355
REMARK  144  A    between atoms: _355  and  _356
REMARK  145  A    between atoms: _361  and  _363
REMARK  146  A    between atoms: _363  and  _364
REMARK  147  A    between atoms: _363  and  _366
REMARK  148  A    between atoms: _366  and  _367
REMARK                            x       y       z     vdW  Elec       q    Type
REMARK                         _______ _______ _______ _____ _____    ______ ____
ROOT
ATOM      1  O   HOH     1      39.306  37.465  -4.634  0.00  0.00    +0.000 OA
ENDROOT
TORSDOF 0
REMARK  Name = ../refined-set-2016/3fcq/3fcq_pocket.pdb
REMARK  148 active torsions:
REMARK  status: ('A' for Active; 'I' for Inactive)
REMARK    1  A    between atoms: _1  and  _3
REMARK    2  A    between atoms: _3  and  _4
REMARK    3  A    between atoms: _3  and  _6
REMARK    4  A    between atoms: _6  and  _7
REMARK    5  A    between atoms: _12  and  _13
REMARK    6  A    between atoms: _15  and  _17
REMARK    7  A    between atoms: _17  and  _18
REMARK    8  A    between atoms: _17  and  _20
REMARK    9  A    between atoms: _20  and  _21
REMARK   10  A    between atoms: _26  and  _28
REMARK   11  A    between atoms: _28  and  _29
REMARK   12  A    between atoms: _28  and  _31
REMARK   13  A    between atoms: _31  and  _32
REMARK   14  A    between atoms: _37  and  _39
REMARK   15  A    between atoms: _39  and  _40
REMARK   16  A    between atoms: _43  and  _45
REMARK   17  A    between atoms: _45  and  _46
REMARK   18  A    between atoms: _45  and  _48
REMARK   19  A    between atoms: _48  and  _49
REMARK   20  A    between atoms: _55  and  _57
REMARK   21  A    between atoms: _57  and  _58
REMARK   22  A    between atoms: _57  and  _60
REMARK   23  A    between atoms: _60  and  _61
REMARK   24  A    between atoms: _71  and  _73
REMARK   25  A    between atoms: _73  and  _74
REMARK   26  A    between atoms: _73  and  _76
REMARK   27  A    between atoms: _76  and  _77
REMARK   28  A    between atoms: _77  and  _78
REMARK   29  A    between atoms: _80  and  _82
REMARK   30  A    between atoms: _82  and  _83
REMARK   31  A    between atoms: _82  and  _85
REMARK   32  A    between atoms: _88  and  _90
REMARK   33  A    between atoms: _90  and  _91
REMARK   34  A    between atoms: _90  and  _93
REMARK   35  A    between atoms: _93  and  _94
REMARK   36  A    between atoms: _99  and  _100
REMARK   37  A    between atoms: _102  and  _104
REMARK   38  A    between atoms: _104  and  _105
REMARK   39  A    between atoms: _107  and  _109
REMARK   40  A    between atoms: _109  and  _110
REMARK   41  A    between atoms: _109  and  _112
REMARK   42  A    between atoms: _112  and  _113
REMARK   43  A    between atoms: _116  and  _118
REMARK   44  A    between atoms: _118  and  _119
REMARK   45  A    between atoms: _118  and  _121
REMARK   46  A    between atoms: _121  and  _122
REMARK   47  A    between atoms: _128  and  _130
REMARK   48  A    between atoms: _130  and  _131
REMARK   49  A    between atoms: _130  and  _133
REMARK   50  A    between atoms: _133  and  _134
REMARK   51  A    between atoms: _137  and  _139
REMARK   52  A    between atoms: _139  and  _140
REMARK   53  A    between atoms: _142  and  _144
REMARK   54  A    between atoms: _144  and  _145
REMARK   55  A    between atoms: _144  and  _147
REMARK   56  A    between atoms: _147  and  _148
REMARK   57  A    between atoms: _151  and  _153
REMARK   58  A    between atoms: _153  and  _154
REMARK   59  A    between atoms: _153  and  _156
REMARK   60  A    between atoms: _159  and  _161
REMARK   61  A    between atoms: _161  and  _162
REMARK   62  A    between atoms: _161  and  _164
REMARK   63  A    between atoms: _167  and  _169
REMARK   64  A    between atoms: _169  and  _170
REMARK   65  A    between atoms: _173  and  _175
REMARK   66  A    between atoms: _175  and  _176
REMARK   67  A    between atoms: _175  and  _178
REMARK   68  A    between atoms: _178  and  _179
REMARK   69  A    between atoms: _183  and  ZN_369
REMARK   70  A    between atoms: _184  and  _186
REMARK   71  A    between atoms: _186  and  _187
REMARK   72  A    between atoms: _186  and  _189
REMARK   73  A    between atoms: _189  and  _190
REMARK   74  A    between atoms: _190  and  _191
REMARK   75  A    between atoms: _194  and  _196
REMARK   76  A    between atoms: _196  and  _197
REMARK   77  A    between atoms: _196  and  _199
REMARK   78  A    between atoms: _199  and  _200
REMARK   79  A    between atoms: _203  and  _205
REMARK   80  A    between atoms: _205  and  _206
REMARK   81  A    between atoms: _205  and  _208
REMARK   82  A    between atoms: _208  and  _209
REMARK   83  A    between atoms: _213  and  ZN_369
REMARK   84  A    between atoms: _214  and  _216
REMARK   85  A    between atoms: _216  and  _217
REMARK   86  A    between atoms: _216  and  _219
REMARK   87  A    between atoms: _219  and  _220
REMARK   88  A    between atoms: _225  and  _226
REMARK   89  A    between atoms: _228  and  _230
REMARK   90  A    between atoms: _230  and  _231
REMARK   91  A    between atoms: _230  and  _233
REMARK   92  A    between atoms: _233  and  _234
REMARK   93  A    between atoms: _239  and  _241
REMARK   94  A    between atoms: _241  and  _242
REMARK   95  A    between atoms: _241  and  _244
REMARK   96  A    between atoms: _244  and  _245
REMARK   97  A    between atoms: _245  and  _246
REMARK   98  A    between atoms: _246  and  _248
REMARK   99  A    between atoms: _248  and  ZN_369
REMARK  100  A    between atoms: _249  and  _251
REMARK  101  A    between atoms: _251  and  _252
REMARK  102  A    between atoms: _251  and  _254
REMARK  103  A    between atoms: _254  and  _255
REMARK  104  A    between atoms: _257  and  _259
REMARK  105  A    between atoms: _259  and  _260
REMARK  106  A    between atoms: _259  and  _262
REMARK  107  A    between atoms: _262  and  _263
REMARK  108  A    between atoms: _266  and  _268
REMARK  109  A    between atoms: _268  and  _269
REMARK  110  A    between atoms: _271  and  _273
REMARK  111  A    between atoms: _273  and  _274
REMARK  112  A    between atoms: _273  and  _276
REMARK  113  A    between atoms: _276  and  _277
REMARK  114  A    between atoms: _280  and  _282
REMARK  115  A    between atoms: _282  and  _283
REMARK  116  A    between atoms: _285  and  _287
REMARK  117  A    between atoms: _287  and  _288
REMARK  118  A    between atoms: _287  and  _290
REMARK  119  A    between atoms: _293  and  _295
REMARK  120  A    between atoms: _295  and  _296
REMARK  121  A    between atoms: _295  and  _298
REMARK  122  A    between atoms: _298  and  _299
REMARK  123  A    between atoms: _304  and  _305
REMARK  124  A    between atoms: _307  and  _309
REMARK  125  A    between atoms: _309  and  _310
REMARK  126  A    between atoms: _309  and  _312
REMARK  127  A    between atoms: _312  and  _313
REMARK  128  A    between atoms: _316  and  _318
REMARK  129  A    between atoms: _318  and  _319
REMARK  130  A    between atoms: _318  and  _321
REMARK  131  A    between atoms: _321  and  _322
REMARK  132  A    between atoms: _322  and  _323
REMARK  133  A    between atoms: _323  and  _324
REMARK  134  A    between atoms: _333  and  _335
REMARK  135  A    between atoms: _335  and  _336
REMARK  136  A    between atoms: _335  and  _338
REMARK  137  A    between atoms: _338  and  _339
REMARK  138  A    between atoms: _342  and  _344
REMARK  139  A    between atoms: _344  and  _345
REMARK  140  A    between atoms: _344  and  _347
REMARK  141  A    between atoms: _350  and  _352
REMARK  142  A    between atoms: _352  and  _353
REMARK  143  A    between atoms: _352  and  _355
REMARK  144  A    between atoms: _355  and  _356
REMARK  145  A    between atoms: _361  and  _363
REMARK  146  A    between atoms: _363  and  _364
REMARK  147  A    between atoms: _363  and  _366
REMARK  148  A    between atoms: _366  and  _367
REMARK                            x       y       z     vdW  Elec       q    Type
REMARK                         _______ _______ _______ _____ _____    ______ ____
ROOT
ATOM      1  O   HOH     1      32.175  42.610  -8.250  0.00  0.00    +0.000 OA
ENDROOT
TORSDOF 0
