REMARK  Name = ../refined-set-2016/1m0q/1m0q_pocket.pdb
REMARK  226 active torsions:
REMARK  status: ('A' for Active; 'I' for Inactive)
REMARK    1  A    between atoms: _1  and  _3
REMARK    2  A    between atoms: _3  and  _4
REMARK    3  A    between atoms: _3  and  _6
REMARK    4  A    between atoms: _6  and  _7
REMARK    5  A    between atoms: _10  and  _12
REMARK    6  A    between atoms: _12  and  _13
REMARK    7  A    between atoms: _15  and  _17
REMARK    8  A    between atoms: _17  and  _18
REMARK    9  A    between atoms: _17  and  _20
REMARK   10  A    between atoms: _20  and  _21
REMARK   11  A    between atoms: _21  and  _22
REMARK   12  A    between atoms: _27  and  _29
REMARK   13  A    between atoms: _29  and  _30
REMARK   14  A    between atoms: _29  and  _32
REMARK   15  A    between atoms: _32  and  _33
REMARK   16  A    between atoms: _33  and  _34
REMARK   17  A    between atoms: _36  and  _38
REMARK   18  A    between atoms: _38  and  _39
REMARK   19  A    between atoms: _38  and  _41
REMARK   20  A    between atoms: _41  and  _42
REMARK   21  A    between atoms: _44  and  _46
REMARK   22  A    between atoms: _46  and  _47
REMARK   23  A    between atoms: _46  and  _49
REMARK   24  A    between atoms: _49  and  _50
REMARK   25  A    between atoms: _52  and  _54
REMARK   26  A    between atoms: _54  and  _55
REMARK   27  A    between atoms: _54  and  _57
REMARK   28  A    between atoms: _57  and  _58
REMARK   29  A    between atoms: _61  and  _63
REMARK   30  A    between atoms: _63  and  _64
REMARK   31  A    between atoms: _66  and  _68
REMARK   32  A    between atoms: _68  and  _69
REMARK   33  A    between atoms: _72  and  _74
REMARK   34  A    between atoms: _74  and  _75
REMARK   35  A    between atoms: _74  and  _77
REMARK   36  A    between atoms: _77  and  _78
REMARK   37  A    between atoms: _78  and  _79
REMARK   38  A    between atoms: _82  and  _84
REMARK   39  A    between atoms: _84  and  _85
REMARK   40  A    between atoms: _84  and  _87
REMARK   41  A    between atoms: _87  and  _88
REMARK   42  A    between atoms: _90  and  _92
REMARK   43  A    between atoms: _92  and  _93
REMARK   44  A    between atoms: _92  and  _95
REMARK   45  A    between atoms: _95  and  _96
REMARK   46  A    between atoms: _101  and  _103
REMARK   47  A    between atoms: _103  and  _104
REMARK   48  A    between atoms: _103  and  _106
REMARK   49  A    between atoms: _106  and  _107
REMARK   50  A    between atoms: _107  and  _108
REMARK   51  A    between atoms: _111  and  _113
REMARK   52  A    between atoms: _113  and  _114
REMARK   53  A    between atoms: _113  and  _116
REMARK   54  A    between atoms: _116  and  _117
REMARK   55  A    between atoms: _119  and  _121
REMARK   56  A    between atoms: _121  and  _122
REMARK   57  A    between atoms: _121  and  _124
REMARK   58  A    between atoms: _124  and  _125
REMARK   59  A    between atoms: _135  and  _137
REMARK   60  A    between atoms: _137  and  _138
REMARK   61  A    between atoms: _137  and  _140
REMARK   62  A    between atoms: _140  and  _141
REMARK   63  A    between atoms: _146  and  _148
REMARK   64  A    between atoms: _148  and  _149
REMARK   65  A    between atoms: _151  and  _153
REMARK   66  A    between atoms: _153  and  _154
REMARK   67  A    between atoms: _153  and  _156
REMARK   68  A    between atoms: _156  and  _157
REMARK   69  A    between atoms: _157  and  _158
REMARK   70  A    between atoms: _160  and  _162
REMARK   71  A    between atoms: _162  and  _163
REMARK   72  A    between atoms: _162  and  _165
REMARK   73  A    between atoms: _165  and  _166
REMARK   74  A    between atoms: _169  and  _171
REMARK   75  A    between atoms: _171  and  _172
REMARK   76  A    between atoms: _175  and  _177
REMARK   77  A    between atoms: _177  and  _178
REMARK   78  A    between atoms: _177  and  _180
REMARK   79  A    between atoms: _180  and  _181
REMARK   80  A    between atoms: _184  and  _186
REMARK   81  A    between atoms: _186  and  _187
REMARK   82  A    between atoms: _186  and  _189
REMARK   83  A    between atoms: _189  and  _190
REMARK   84  A    between atoms: _193  and  _195
REMARK   85  A    between atoms: _195  and  _196
REMARK   86  A    between atoms: _199  and  _201
REMARK   87  A    between atoms: _201  and  _202
REMARK   88  A    between atoms: _201  and  _204
REMARK   89  A    between atoms: _204  and  _205
REMARK   90  A    between atoms: _205  and  _206
REMARK   91  A    between atoms: _210  and  _211
REMARK   92  A    between atoms: _216  and  _218
REMARK   93  A    between atoms: _218  and  _219
REMARK   94  A    between atoms: _218  and  _221
REMARK   95  A    between atoms: _221  and  _222
REMARK   96  A    between atoms: _225  and  _227
REMARK   97  A    between atoms: _227  and  _228
REMARK   98  A    between atoms: _227  and  _230
REMARK   99  A    between atoms: _230  and  _231
REMARK  100  A    between atoms: _234  and  _236
REMARK  101  A    between atoms: _236  and  _237
REMARK  102  A    between atoms: _236  and  _239
REMARK  103  A    between atoms: _239  and  _240
REMARK  104  A    between atoms: _242  and  _244
REMARK  105  A    between atoms: _244  and  _245
REMARK  106  A    between atoms: _244  and  _247
REMARK  107  A    between atoms: _247  and  _248
REMARK  108  A    between atoms: _250  and  _252
REMARK  109  A    between atoms: _252  and  _253
REMARK  110  A    between atoms: _255  and  _257
REMARK  111  A    between atoms: _257  and  _258
REMARK  112  A    between atoms: _260  and  _262
REMARK  113  A    between atoms: _262  and  _263
REMARK  114  A    between atoms: _262  and  _265
REMARK  115  A    between atoms: _265  and  _266
REMARK  116  A    between atoms: _269  and  _271
REMARK  117  A    between atoms: _271  and  _272
REMARK  118  A    between atoms: _271  and  _274
REMARK  119  A    between atoms: _274  and  _275
REMARK  120  A    between atoms: _275  and  _276
REMARK  121  A    between atoms: _279  and  _281
REMARK  122  A    between atoms: _281  and  _282
REMARK  123  A    between atoms: _285  and  _287
REMARK  124  A    between atoms: _287  and  _288
REMARK  125  A    between atoms: _287  and  _290
REMARK  126  A    between atoms: _290  and  _291
REMARK  127  A    between atoms: _291  and  _292
REMARK  128  A    between atoms: _297  and  _299
REMARK  129  A    between atoms: _299  and  _300
REMARK  130  A    between atoms: _299  and  _302
REMARK  131  A    between atoms: _302  and  _303
REMARK  132  A    between atoms: _306  and  _308
REMARK  133  A    between atoms: _308  and  _309
REMARK  134  A    between atoms: _311  and  _313
REMARK  135  A    between atoms: _313  and  _314
REMARK  136  A    between atoms: _313  and  _316
REMARK  137  A    between atoms: _316  and  _317
REMARK  138  A    between atoms: _320  and  _322
REMARK  139  A    between atoms: _322  and  _323
REMARK  140  A    between atoms: _322  and  _325
REMARK  141  A    between atoms: _325  and  _326
REMARK  142  A    between atoms: _329  and  _331
REMARK  143  A    between atoms: _331  and  _332
REMARK  144  A    between atoms: _331  and  _334
REMARK  145  A    between atoms: _334  and  _335
REMARK  146  A    between atoms: _337  and  _339
REMARK  147  A    between atoms: _339  and  _340
REMARK  148  A    between atoms: _339  and  _342
REMARK  149  A    between atoms: _342  and  _343
REMARK  150  A    between atoms: _343  and  _344
REMARK  151  A    between atoms: _344  and  _345
REMARK  152  A    between atoms: _345  and  _346
REMARK  153  A    between atoms: _351  and  _352
REMARK  154  A    between atoms: _357  and  _359
REMARK  155  A    between atoms: _359  and  _360
REMARK  156  A    between atoms: _359  and  _362
REMARK  157  A    between atoms: _362  and  _363
REMARK  158  A    between atoms: _366  and  _368
REMARK  159  A    between atoms: _368  and  _369
REMARK  160  A    between atoms: _372  and  _374
REMARK  161  A    between atoms: _374  and  _375
REMARK  162  A    between atoms: _374  and  _377
REMARK  163  A    between atoms: _377  and  _378
REMARK  164  A    between atoms: _383  and  _385
REMARK  165  A    between atoms: _385  and  _386
REMARK  166  A    between atoms: _385  and  _388
REMARK  167  A    between atoms: _391  and  _393
REMARK  168  A    between atoms: _393  and  _394
REMARK  169  A    between atoms: _393  and  _396
REMARK  170  A    between atoms: _396  and  _397
REMARK  171  A    between atoms: _397  and  _398
REMARK  172  A    between atoms: _398  and  _399
REMARK  173  A    between atoms: _408  and  _410
REMARK  174  A    between atoms: _410  and  _411
REMARK  175  A    between atoms: _410  and  _413
REMARK  176  A    between atoms: _413  and  _414
REMARK  177  A    between atoms: _419  and  _421
REMARK  178  A    between atoms: _421  and  _422
REMARK  179  A    between atoms: _421  and  _424
REMARK  180  A    between atoms: _424  and  _425
REMARK  181  A    between atoms: _431  and  _433
REMARK  182  A    between atoms: _433  and  _434
REMARK  183  A    between atoms: _433  and  _436
REMARK  184  A    between atoms: _436  and  _437
REMARK  185  A    between atoms: _439  and  _441
REMARK  186  A    between atoms: _441  and  _442
REMARK  187  A    between atoms: _441  and  _444
REMARK  188  A    between atoms: _444  and  _445
REMARK  189  A    between atoms: _445  and  _446
REMARK  190  A    between atoms: _449  and  _451
REMARK  191  A    between atoms: _451  and  _452
REMARK  192  A    between atoms: _451  and  _454
REMARK  193  A    between atoms: _454  and  _455
REMARK  194  A    between atoms: _458  and  _460
REMARK  195  A    between atoms: _460  and  _461
REMARK  196  A    between atoms: _460  and  _463
REMARK  197  A    between atoms: _463  and  _464
REMARK  198  A    between atoms: _466  and  _468
REMARK  199  A    between atoms: _468  and  _469
REMARK  200  A    between atoms: _468  and  _471
REMARK  201  A    between atoms: _471  and  _472
REMARK  202  A    between atoms: _472  and  _473
REMARK  203  A    between atoms: _476  and  _478
REMARK  204  A    between atoms: _478  and  _479
REMARK  205  A    between atoms: _478  and  _481
REMARK  206  A    between atoms: _481  and  _482
REMARK  207  A    between atoms: _488  and  _490
REMARK  208  A    between atoms: _490  and  _491
REMARK  209  A    between atoms: _490  and  _493
REMARK  210  A    between atoms: _493  and  _494
REMARK  211  A    between atoms: _499  and  _500
REMARK  212  A    between atoms: _502  and  _504
REMARK  213  A    between atoms: _504  and  _505
REMARK  214  A    between atoms: _504  and  _507
REMARK  215  A    between atoms: _507  and  _508
REMARK  216  A    between atoms: _511  and  _513
REMARK  217  A    between atoms: _513  and  _514
REMARK  218  A    between atoms: _513  and  _516
REMARK  219  A    between atoms: _516  and  _517
REMARK  220  A    between atoms: _520  and  _522
REMARK  221  A    between atoms: _522  and  _523
REMARK  222  A    between atoms: _522  and  _525
REMARK  223  A    between atoms: _525  and  _526
REMARK  224  A    between atoms: _531  and  _533
REMARK  225  A    between atoms: _533  and  _534
REMARK  226  A    between atoms: _533  and  _536
REMARK                            x       y       z     vdW  Elec       q    Type
REMARK                         _______ _______ _______ _____ _____    ______ ____
ROOT
ATOM      1  CA  THR A   1       5.755  46.704  21.936  0.00  0.00    +0.160 C 
ENDROOT
BRANCH   1   2
ATOM      2  N   THR A   1       4.651  46.065  22.604  0.00  0.00    -0.237 NA
ATOM      3  H   THR A   1       4.775  45.121  23.021  0.00  0.00    +0.142 HD
ENDBRANCH   1   2
BRANCH   1   4
ATOM      4  CB  THR A   1       6.854  47.249  22.897  0.00  0.00    +0.134 C 
ATOM      5  CG2 THR A   1       6.291  48.230  23.970  0.00  0.00    +0.034 C 
BRANCH   4   6
ATOM      6  OG1 THR A   1       7.452  46.124  23.520  0.00  0.00    -0.383 OA
ATOM      7  HG1 THR A   1       7.850  45.538  22.828  0.00  0.00    +0.210 HD
ENDBRANCH   4   6
ENDBRANCH   1   4
BRANCH   1   8
ATOM      8  C   THR A   1       6.424  45.677  21.000  0.00  0.00    +0.227 C 
ATOM      9  O   THR A   1       7.547  45.869  20.564  0.00  0.00    -0.287 OA
ENDBRANCH   1   8
TORSDOF 4
REMARK  Name = ../refined-set-2016/1m0q/1m0q_pocket.pdb
REMARK  226 active torsions:
REMARK  status: ('A' for Active; 'I' for Inactive)
REMARK    1  A    between atoms: _1  and  _3
REMARK    2  A    between atoms: _3  and  _4
REMARK    3  A    between atoms: _3  and  _6
REMARK    4  A    between atoms: _6  and  _7
REMARK    5  A    between atoms: _10  and  _12
REMARK    6  A    between atoms: _12  and  _13
REMARK    7  A    between atoms: _15  and  _17
REMARK    8  A    between atoms: _17  and  _18
REMARK    9  A    between atoms: _17  and  _20
REMARK   10  A    between atoms: _20  and  _21
REMARK   11  A    between atoms: _21  and  _22
REMARK   12  A    between atoms: _27  and  _29
REMARK   13  A    between atoms: _29  and  _30
REMARK   14  A    between atoms: _29  and  _32
REMARK   15  A    between atoms: _32  and  _33
REMARK   16  A    between atoms: _33  and  _34
REMARK   17  A    between atoms: _36  and  _38
REMARK   18  A    between atoms: _38  and  _39
REMARK   19  A    between atoms: _38  and  _41
REMARK   20  A    between atoms: _41  and  _42
REMARK   21  A    between atoms: _44  and  _46
REMARK   22  A    between atoms: _46  and  _47
REMARK   23  A    between atoms: _46  and  _49
REMARK   24  A    between atoms: _49  and  _50
REMARK   25  A    between atoms: _52  and  _54
REMARK   26  A    between atoms: _54  and  _55
REMARK   27  A    between atoms: _54  and  _57
REMARK   28  A    between atoms: _57  and  _58
REMARK   29  A    between atoms: _61  and  _63
REMARK   30  A    between atoms: _63  and  _64
REMARK   31  A    between atoms: _66  and  _68
REMARK   32  A    between atoms: _68  and  _69
REMARK   33  A    between atoms: _72  and  _74
REMARK   34  A    between atoms: _74  and  _75
REMARK   35  A    between atoms: _74  and  _77
REMARK   36  A    between atoms: _77  and  _78
REMARK   37  A    between atoms: _78  and  _79
REMARK   38  A    between atoms: _82  and  _84
REMARK   39  A    between atoms: _84  and  _85
REMARK   40  A    between atoms: _84  and  _87
REMARK   41  A    between atoms: _87  and  _88
REMARK   42  A    between atoms: _90  and  _92
REMARK   43  A    between atoms: _92  and  _93
REMARK   44  A    between atoms: _92  and  _95
REMARK   45  A    between atoms: _95  and  _96
REMARK   46  A    between atoms: _101  and  _103
REMARK   47  A    between atoms: _103  and  _104
REMARK   48  A    between atoms: _103  and  _106
REMARK   49  A    between atoms: _106  and  _107
REMARK   50  A    between atoms: _107  and  _108
REMARK   51  A    between atoms: _111  and  _113
REMARK   52  A    between atoms: _113  and  _114
REMARK   53  A    between atoms: _113  and  _116
REMARK   54  A    between atoms: _116  and  _117
REMARK   55  A    between atoms: _119  and  _121
REMARK   56  A    between atoms: _121  and  _122
REMARK   57  A    between atoms: _121  and  _124
REMARK   58  A    between atoms: _124  and  _125
REMARK   59  A    between atoms: _135  and  _137
REMARK   60  A    between atoms: _137  and  _138
REMARK   61  A    between atoms: _137  and  _140
REMARK   62  A    between atoms: _140  and  _141
REMARK   63  A    between atoms: _146  and  _148
REMARK   64  A    between atoms: _148  and  _149
REMARK   65  A    between atoms: _151  and  _153
REMARK   66  A    between atoms: _153  and  _154
REMARK   67  A    between atoms: _153  and  _156
REMARK   68  A    between atoms: _156  and  _157
REMARK   69  A    between atoms: _157  and  _158
REMARK   70  A    between atoms: _160  and  _162
REMARK   71  A    between atoms: _162  and  _163
REMARK   72  A    between atoms: _162  and  _165
REMARK   73  A    between atoms: _165  and  _166
REMARK   74  A    between atoms: _169  and  _171
REMARK   75  A    between atoms: _171  and  _172
REMARK   76  A    between atoms: _175  and  _177
REMARK   77  A    between atoms: _177  and  _178
REMARK   78  A    between atoms: _177  and  _180
REMARK   79  A    between atoms: _180  and  _181
REMARK   80  A    between atoms: _184  and  _186
REMARK   81  A    between atoms: _186  and  _187
REMARK   82  A    between atoms: _186  and  _189
REMARK   83  A    between atoms: _189  and  _190
REMARK   84  A    between atoms: _193  and  _195
REMARK   85  A    between atoms: _195  and  _196
REMARK   86  A    between atoms: _199  and  _201
REMARK   87  A    between atoms: _201  and  _202
REMARK   88  A    between atoms: _201  and  _204
REMARK   89  A    between atoms: _204  and  _205
REMARK   90  A    between atoms: _205  and  _206
REMARK   91  A    between atoms: _210  and  _211
REMARK   92  A    between atoms: _216  and  _218
REMARK   93  A    between atoms: _218  and  _219
REMARK   94  A    between atoms: _218  and  _221
REMARK   95  A    between atoms: _221  and  _222
REMARK   96  A    between atoms: _225  and  _227
REMARK   97  A    between atoms: _227  and  _228
REMARK   98  A    between atoms: _227  and  _230
REMARK   99  A    between atoms: _230  and  _231
REMARK  100  A    between atoms: _234  and  _236
REMARK  101  A    between atoms: _236  and  _237
REMARK  102  A    between atoms: _236  and  _239
REMARK  103  A    between atoms: _239  and  _240
REMARK  104  A    between atoms: _242  and  _244
REMARK  105  A    between atoms: _244  and  _245
REMARK  106  A    between atoms: _244  and  _247
REMARK  107  A    between atoms: _247  and  _248
REMARK  108  A    between atoms: _250  and  _252
REMARK  109  A    between atoms: _252  and  _253
REMARK  110  A    between atoms: _255  and  _257
REMARK  111  A    between atoms: _257  and  _258
REMARK  112  A    between atoms: _260  and  _262
REMARK  113  A    between atoms: _262  and  _263
REMARK  114  A    between atoms: _262  and  _265
REMARK  115  A    between atoms: _265  and  _266
REMARK  116  A    between atoms: _269  and  _271
REMARK  117  A    between atoms: _271  and  _272
REMARK  118  A    between atoms: _271  and  _274
REMARK  119  A    between atoms: _274  and  _275
REMARK  120  A    between atoms: _275  and  _276
REMARK  121  A    between atoms: _279  and  _281
REMARK  122  A    between atoms: _281  and  _282
REMARK  123  A    between atoms: _285  and  _287
REMARK  124  A    between atoms: _287  and  _288
REMARK  125  A    between atoms: _287  and  _290
REMARK  126  A    between atoms: _290  and  _291
REMARK  127  A    between atoms: _291  and  _292
REMARK  128  A    between atoms: _297  and  _299
REMARK  129  A    between atoms: _299  and  _300
REMARK  130  A    between atoms: _299  and  _302
REMARK  131  A    between atoms: _302  and  _303
REMARK  132  A    between atoms: _306  and  _308
REMARK  133  A    between atoms: _308  and  _309
REMARK  134  A    between atoms: _311  and  _313
REMARK  135  A    between atoms: _313  and  _314
REMARK  136  A    between atoms: _313  and  _316
REMARK  137  A    between atoms: _316  and  _317
REMARK  138  A    between atoms: _320  and  _322
REMARK  139  A    between atoms: _322  and  _323
REMARK  140  A    between atoms: _322  and  _325
REMARK  141  A    between atoms: _325  and  _326
REMARK  142  A    between atoms: _329  and  _331
REMARK  143  A    between atoms: _331  and  _332
REMARK  144  A    between atoms: _331  and  _334
REMARK  145  A    between atoms: _334  and  _335
REMARK  146  A    between atoms: _337  and  _339
REMARK  147  A    between atoms: _339  and  _340
REMARK  148  A    between atoms: _339  and  _342
REMARK  149  A    between atoms: _342  and  _343
REMARK  150  A    between atoms: _343  and  _344
REMARK  151  A    between atoms: _344  and  _345
REMARK  152  A    between atoms: _345  and  _346
REMARK  153  A    between atoms: _351  and  _352
REMARK  154  A    between atoms: _357  and  _359
REMARK  155  A    between atoms: _359  and  _360
REMARK  156  A    between atoms: _359  and  _362
REMARK  157  A    between atoms: _362  and  _363
REMARK  158  A    between atoms: _366  and  _368
REMARK  159  A    between atoms: _368  and  _369
REMARK  160  A    between atoms: _372  and  _374
REMARK  161  A    between atoms: _374  and  _375
REMARK  162  A    between atoms: _374  and  _377
REMARK  163  A    between atoms: _377  and  _378
REMARK  164  A    between atoms: _383  and  _385
REMARK  165  A    between atoms: _385  and  _386
REMARK  166  A    between atoms: _385  and  _388
REMARK  167  A    between atoms: _391  and  _393
REMARK  168  A    between atoms: _393  and  _394
REMARK  169  A    between atoms: _393  and  _396
REMARK  170  A    between atoms: _396  and  _397
REMARK  171  A    between atoms: _397  and  _398
REMARK  172  A    between atoms: _398  and  _399
REMARK  173  A    between atoms: _408  and  _410
REMARK  174  A    between atoms: _410  and  _411
REMARK  175  A    between atoms: _410  and  _413
REMARK  176  A    between atoms: _413  and  _414
REMARK  177  A    between atoms: _419  and  _421
REMARK  178  A    between atoms: _421  and  _422
REMARK  179  A    between atoms: _421  and  _424
REMARK  180  A    between atoms: _424  and  _425
REMARK  181  A    between atoms: _431  and  _433
REMARK  182  A    between atoms: _433  and  _434
REMARK  183  A    between atoms: _433  and  _436
REMARK  184  A    between atoms: _436  and  _437
REMARK  185  A    between atoms: _439  and  _441
REMARK  186  A    between atoms: _441  and  _442
REMARK  187  A    between atoms: _441  and  _444
REMARK  188  A    between atoms: _444  and  _445
REMARK  189  A    between atoms: _445  and  _446
REMARK  190  A    between atoms: _449  and  _451
REMARK  191  A    between atoms: _451  and  _452
REMARK  192  A    between atoms: _451  and  _454
REMARK  193  A    between atoms: _454  and  _455
REMARK  194  A    between atoms: _458  and  _460
REMARK  195  A    between atoms: _460  and  _461
REMARK  196  A    between atoms: _460  and  _463
REMARK  197  A    between atoms: _463  and  _464
REMARK  198  A    between atoms: _466  and  _468
REMARK  199  A    between atoms: _468  and  _469
REMARK  200  A    between atoms: _468  and  _471
REMARK  201  A    between atoms: _471  and  _472
REMARK  202  A    between atoms: _472  and  _473
REMARK  203  A    between atoms: _476  and  _478
REMARK  204  A    between atoms: _478  and  _479
REMARK  205  A    between atoms: _478  and  _481
REMARK  206  A    between atoms: _481  and  _482
REMARK  207  A    between atoms: _488  and  _490
REMARK  208  A    between atoms: _490  and  _491
REMARK  209  A    between atoms: _490  and  _493
REMARK  210  A    between atoms: _493  and  _494
REMARK  211  A    between atoms: _499  and  _500
REMARK  212  A    between atoms: _502  and  _504
REMARK  213  A    between atoms: _504  and  _505
REMARK  214  A    between atoms: _504  and  _507
REMARK  215  A    between atoms: _507  and  _508
REMARK  216  A    between atoms: _511  and  _513
REMARK  217  A    between atoms: _513  and  _514
REMARK  218  A    between atoms: _513  and  _516
REMARK  219  A    between atoms: _516  and  _517
REMARK  220  A    between atoms: _520  and  _522
REMARK  221  A    between atoms: _522  and  _523
REMARK  222  A    between atoms: _522  and  _525
REMARK  223  A    between atoms: _525  and  _526
REMARK  224  A    between atoms: _531  and  _533
REMARK  225  A    between atoms: _533  and  _534
REMARK  226  A    between atoms: _533  and  _536
REMARK                            x       y       z     vdW  Elec       q    Type
REMARK                         _______ _______ _______ _____ _____    ______ ____
ROOT
ATOM      1  C   GLN A   2      11.465  45.972  19.863  0.00  0.00    +0.241 C 
ATOM      2  N   MET A   3      10.166  46.217  19.737  0.00  0.00    -0.297 N 
ATOM      3  H   MET A   3       9.518  45.915  20.493  0.00  0.00    +0.150 HD
ATOM      4  O   GLN A   2      12.287  46.249  18.980  0.00  0.00    -0.273 OA
ENDROOT
BRANCH   2   5
ATOM      5  CA  MET A   3       9.623  46.899  18.565  0.00  0.00    +0.149 C 
BRANCH   5   6
ATOM      6  C   MET A   3       9.968  46.110  17.293  0.00  0.00    +0.241 C 
ATOM      7  N   SER A   4       9.937  44.779  17.344  0.00  0.00    -0.296 N 
ATOM      8  H   SER A   4       9.605  44.309  18.210  0.00  0.00    +0.150 HD
ATOM      9  O   MET A   3      10.401  46.729  16.313  0.00  0.00    -0.273 OA
BRANCH   7  10
ATOM     10  CA  SER A   4      10.372  43.945  16.175  0.00  0.00    +0.166 C 
BRANCH  10  11
ATOM     11  C   SER A   4       9.392  42.934  15.685  0.00  0.00    +0.229 C 
ATOM     12  O   SER A   4       9.342  42.656  14.505  0.00  0.00    -0.286 OA
ENDBRANCH  10  11
BRANCH  10  13
ATOM     13  CB  SER A   4      11.689  43.087  16.452  0.00  0.00    +0.165 C 
BRANCH  13  14
ATOM     14  OG  SER A   4      12.753  43.949  16.632  0.00  0.00    -0.380 OA
ATOM     15  H   SER A   4      12.570  44.541  17.404  0.00  0.00    +0.211 HD
ENDBRANCH  13  14
ENDBRANCH  10  13
ENDBRANCH   7  10
ENDBRANCH   5   6
BRANCH   5  16
ATOM     16  CB  MET A   3      10.337  48.246  18.465  0.00  0.00    +0.041 C 
BRANCH  16  17
ATOM     17  CG  MET A   3      10.216  49.177  19.631  0.00  0.00    +0.060 C 
BRANCH  17  18
ATOM     18  SD  MET A   3       8.414  49.406  20.091  0.00  0.00    -0.139 S 
ATOM     19  CE  MET A   3       8.345  51.128  20.204  0.00  0.00    +0.069 C 
ENDBRANCH  17  18
ENDBRANCH  16  17
ENDBRANCH   5  16
ENDBRANCH   2   5
BRANCH   1  20
ATOM     20  CA  GLN A   2      11.905  45.335  21.220  0.00  0.00    +0.149 C 
BRANCH  20  23
ATOM     21  C   GLY A   1      10.093  43.946  21.960  0.00  0.00    +0.240 C 
ATOM     22  O   GLY A   1       9.588  44.937  22.469  0.00  0.00    -0.274 OA
ATOM     23  N   GLN A   2      11.246  44.015  21.289  0.00  0.00    -0.297 N 
ATOM     24  H   GLN A   2      11.661  43.176  20.835  0.00  0.00    +0.150 HD
BRANCH  21  25
ATOM     25  CA  GLY A   1       9.332  42.628  21.998  0.00  0.00    +0.169 C 
BRANCH  25  26
ATOM     26  N   GLY A   1       7.948  42.999  21.559  0.00  0.00    -0.236 NA
ATOM     27  H   GLY A   1       7.180  43.068  22.256  0.00  0.00    +0.142 HD
ENDBRANCH  25  26
ENDBRANCH  21  25
ENDBRANCH  20  23
BRANCH  20  28
ATOM     28  CB  GLN A   2      13.469  45.218  21.351  0.00  0.00    +0.039 C 
BRANCH  28  29
ATOM     29  CG  GLN A   2      14.209  46.594  21.631  0.00  0.00    +0.087 C 
BRANCH  29  30
ATOM     30  CD  GLN A   2      13.680  47.291  22.858  0.00  0.00    +0.219 C 
ATOM     31  OE1 GLN A   2      13.756  46.735  23.924  0.00  0.00    -0.275 OA
ATOM     32  NE2 GLN A   2      13.112  48.486  22.699  0.00  0.00    -0.329 N 
ATOM     33 HE21 GLN A   2      12.708  48.983  23.518  0.00  0.00    +0.145 HD
ATOM     34 HE22 GLN A   2      13.073  48.922  21.756  0.00  0.00    +0.145 HD
ENDBRANCH  29  30
ENDBRANCH  28  29
ENDBRANCH  20  28
ENDBRANCH   1  20
TORSDOF 16
REMARK  Name = ../refined-set-2016/1m0q/1m0q_pocket.pdb
REMARK  226 active torsions:
REMARK  status: ('A' for Active; 'I' for Inactive)
REMARK    1  A    between atoms: _1  and  _3
REMARK    2  A    between atoms: _3  and  _4
REMARK    3  A    between atoms: _3  and  _6
REMARK    4  A    between atoms: _6  and  _7
REMARK    5  A    between atoms: _10  and  _12
REMARK    6  A    between atoms: _12  and  _13
REMARK    7  A    between atoms: _15  and  _17
REMARK    8  A    between atoms: _17  and  _18
REMARK    9  A    between atoms: _17  and  _20
REMARK   10  A    between atoms: _20  and  _21
REMARK   11  A    between atoms: _21  and  _22
REMARK   12  A    between atoms: _27  and  _29
REMARK   13  A    between atoms: _29  and  _30
REMARK   14  A    between atoms: _29  and  _32
REMARK   15  A    between atoms: _32  and  _33
REMARK   16  A    between atoms: _33  and  _34
REMARK   17  A    between atoms: _36  and  _38
REMARK   18  A    between atoms: _38  and  _39
REMARK   19  A    between atoms: _38  and  _41
REMARK   20  A    between atoms: _41  and  _42
REMARK   21  A    between atoms: _44  and  _46
REMARK   22  A    between atoms: _46  and  _47
REMARK   23  A    between atoms: _46  and  _49
REMARK   24  A    between atoms: _49  and  _50
REMARK   25  A    between atoms: _52  and  _54
REMARK   26  A    between atoms: _54  and  _55
REMARK   27  A    between atoms: _54  and  _57
REMARK   28  A    between atoms: _57  and  _58
REMARK   29  A    between atoms: _61  and  _63
REMARK   30  A    between atoms: _63  and  _64
REMARK   31  A    between atoms: _66  and  _68
REMARK   32  A    between atoms: _68  and  _69
REMARK   33  A    between atoms: _72  and  _74
REMARK   34  A    between atoms: _74  and  _75
REMARK   35  A    between atoms: _74  and  _77
REMARK   36  A    between atoms: _77  and  _78
REMARK   37  A    between atoms: _78  and  _79
REMARK   38  A    between atoms: _82  and  _84
REMARK   39  A    between atoms: _84  and  _85
REMARK   40  A    between atoms: _84  and  _87
REMARK   41  A    between atoms: _87  and  _88
REMARK   42  A    between atoms: _90  and  _92
REMARK   43  A    between atoms: _92  and  _93
REMARK   44  A    between atoms: _92  and  _95
REMARK   45  A    between atoms: _95  and  _96
REMARK   46  A    between atoms: _101  and  _103
REMARK   47  A    between atoms: _103  and  _104
REMARK   48  A    between atoms: _103  and  _106
REMARK   49  A    between atoms: _106  and  _107
REMARK   50  A    between atoms: _107  and  _108
REMARK   51  A    between atoms: _111  and  _113
REMARK   52  A    between atoms: _113  and  _114
REMARK   53  A    between atoms: _113  and  _116
REMARK   54  A    between atoms: _116  and  _117
REMARK   55  A    between atoms: _119  and  _121
REMARK   56  A    between atoms: _121  and  _122
REMARK   57  A    between atoms: _121  and  _124
REMARK   58  A    between atoms: _124  and  _125
REMARK   59  A    between atoms: _135  and  _137
REMARK   60  A    between atoms: _137  and  _138
REMARK   61  A    between atoms: _137  and  _140
REMARK   62  A    between atoms: _140  and  _141
REMARK   63  A    between atoms: _146  and  _148
REMARK   64  A    between atoms: _148  and  _149
REMARK   65  A    between atoms: _151  and  _153
REMARK   66  A    between atoms: _153  and  _154
REMARK   67  A    between atoms: _153  and  _156
REMARK   68  A    between atoms: _156  and  _157
REMARK   69  A    between atoms: _157  and  _158
REMARK   70  A    between atoms: _160  and  _162
REMARK   71  A    between atoms: _162  and  _163
REMARK   72  A    between atoms: _162  and  _165
REMARK   73  A    between atoms: _165  and  _166
REMARK   74  A    between atoms: _169  and  _171
REMARK   75  A    between atoms: _171  and  _172
REMARK   76  A    between atoms: _175  and  _177
REMARK   77  A    between atoms: _177  and  _178
REMARK   78  A    between atoms: _177  and  _180
REMARK   79  A    between atoms: _180  and  _181
REMARK   80  A    between atoms: _184  and  _186
REMARK   81  A    between atoms: _186  and  _187
REMARK   82  A    between atoms: _186  and  _189
REMARK   83  A    between atoms: _189  and  _190
REMARK   84  A    between atoms: _193  and  _195
REMARK   85  A    between atoms: _195  and  _196
REMARK   86  A    between atoms: _199  and  _201
REMARK   87  A    between atoms: _201  and  _202
REMARK   88  A    between atoms: _201  and  _204
REMARK   89  A    between atoms: _204  and  _205
REMARK   90  A    between atoms: _205  and  _206
REMARK   91  A    between atoms: _210  and  _211
REMARK   92  A    between atoms: _216  and  _218
REMARK   93  A    between atoms: _218  and  _219
REMARK   94  A    between atoms: _218  and  _221
REMARK   95  A    between atoms: _221  and  _222
REMARK   96  A    between atoms: _225  and  _227
REMARK   97  A    between atoms: _227  and  _228
REMARK   98  A    between atoms: _227  and  _230
REMARK   99  A    between atoms: _230  and  _231
REMARK  100  A    between atoms: _234  and  _236
REMARK  101  A    between atoms: _236  and  _237
REMARK  102  A    between atoms: _236  and  _239
REMARK  103  A    between atoms: _239  and  _240
REMARK  104  A    between atoms: _242  and  _244
REMARK  105  A    between atoms: _244  and  _245
REMARK  106  A    between atoms: _244  and  _247
REMARK  107  A    between atoms: _247  and  _248
REMARK  108  A    between atoms: _250  and  _252
REMARK  109  A    between atoms: _252  and  _253
REMARK  110  A    between atoms: _255  and  _257
REMARK  111  A    between atoms: _257  and  _258
REMARK  112  A    between atoms: _260  and  _262
REMARK  113  A    between atoms: _262  and  _263
REMARK  114  A    between atoms: _262  and  _265
REMARK  115  A    between atoms: _265  and  _266
REMARK  116  A    between atoms: _269  and  _271
REMARK  117  A    between atoms: _271  and  _272
REMARK  118  A    between atoms: _271  and  _274
REMARK  119  A    between atoms: _274  and  _275
REMARK  120  A    between atoms: _275  and  _276
REMARK  121  A    between atoms: _279  and  _281
REMARK  122  A    between atoms: _281  and  _282
REMARK  123  A    between atoms: _285  and  _287
REMARK  124  A    between atoms: _287  and  _288
REMARK  125  A    between atoms: _287  and  _290
REMARK  126  A    between atoms: _290  and  _291
REMARK  127  A    between atoms: _291  and  _292
REMARK  128  A    between atoms: _297  and  _299
REMARK  129  A    between atoms: _299  and  _300
REMARK  130  A    between atoms: _299  and  _302
REMARK  131  A    between atoms: _302  and  _303
REMARK  132  A    between atoms: _306  and  _308
REMARK  133  A    between atoms: _308  and  _309
REMARK  134  A    between atoms: _311  and  _313
REMARK  135  A    between atoms: _313  and  _314
REMARK  136  A    between atoms: _313  and  _316
REMARK  137  A    between atoms: _316  and  _317
REMARK  138  A    between atoms: _320  and  _322
REMARK  139  A    between atoms: _322  and  _323
REMARK  140  A    between atoms: _322  and  _325
REMARK  141  A    between atoms: _325  and  _326
REMARK  142  A    between atoms: _329  and  _331
REMARK  143  A    between atoms: _331  and  _332
REMARK  144  A    between atoms: _331  and  _334
REMARK  145  A    between atoms: _334  and  _335
REMARK  146  A    between atoms: _337  and  _339
REMARK  147  A    between atoms: _339  and  _340
REMARK  148  A    between atoms: _339  and  _342
REMARK  149  A    between atoms: _342  and  _343
REMARK  150  A    between atoms: _343  and  _344
REMARK  151  A    between atoms: _344  and  _345
REMARK  152  A    between atoms: _345  and  _346
REMARK  153  A    between atoms: _351  and  _352
REMARK  154  A    between atoms: _357  and  _359
REMARK  155  A    between atoms: _359  and  _360
REMARK  156  A    between atoms: _359  and  _362
REMARK  157  A    between atoms: _362  and  _363
REMARK  158  A    between atoms: _366  and  _368
REMARK  159  A    between atoms: _368  and  _369
REMARK  160  A    between atoms: _372  and  _374
REMARK  161  A    between atoms: _374  and  _375
REMARK  162  A    between atoms: _374  and  _377
REMARK  163  A    between atoms: _377  and  _378
REMARK  164  A    between atoms: _383  and  _385
REMARK  165  A    between atoms: _385  and  _386
REMARK  166  A    between atoms: _385  and  _388
REMARK  167  A    between atoms: _391  and  _393
REMARK  168  A    between atoms: _393  and  _394
REMARK  169  A    between atoms: _393  and  _396
REMARK  170  A    between atoms: _396  and  _397
REMARK  171  A    between atoms: _397  and  _398
REMARK  172  A    between atoms: _398  and  _399
REMARK  173  A    between atoms: _408  and  _410
REMARK  174  A    between atoms: _410  and  _411
REMARK  175  A    between atoms: _410  and  _413
REMARK  176  A    between atoms: _413  and  _414
REMARK  177  A    between atoms: _419  and  _421
REMARK  178  A    between atoms: _421  and  _422
REMARK  179  A    between atoms: _421  and  _424
REMARK  180  A    between atoms: _424  and  _425
REMARK  181  A    between atoms: _431  and  _433
REMARK  182  A    between atoms: _433  and  _434
REMARK  183  A    between atoms: _433  and  _436
REMARK  184  A    between atoms: _436  and  _437
REMARK  185  A    between atoms: _439  and  _441
REMARK  186  A    between atoms: _441  and  _442
REMARK  187  A    between atoms: _441  and  _444
REMARK  188  A    between atoms: _444  and  _445
REMARK  189  A    between atoms: _445  and  _446
REMARK  190  A    between atoms: _449  and  _451
REMARK  191  A    between atoms: _451  and  _452
REMARK  192  A    between atoms: _451  and  _454
REMARK  193  A    between atoms: _454  and  _455
REMARK  194  A    between atoms: _458  and  _460
REMARK  195  A    between atoms: _460  and  _461
REMARK  196  A    between atoms: _460  and  _463
REMARK  197  A    between atoms: _463  and  _464
REMARK  198  A    between atoms: _466  and  _468
REMARK  199  A    between atoms: _468  and  _469
REMARK  200  A    between atoms: _468  and  _471
REMARK  201  A    between atoms: _471  and  _472
REMARK  202  A    between atoms: _472  and  _473
REMARK  203  A    between atoms: _476  and  _478
REMARK  204  A    between atoms: _478  and  _479
REMARK  205  A    between atoms: _478  and  _481
REMARK  206  A    between atoms: _481  and  _482
REMARK  207  A    between atoms: _488  and  _490
REMARK  208  A    between atoms: _490  and  _491
REMARK  209  A    between atoms: _490  and  _493
REMARK  210  A    between atoms: _493  and  _494
REMARK  211  A    between atoms: _499  and  _500
REMARK  212  A    between atoms: _502  and  _504
REMARK  213  A    between atoms: _504  and  _505
REMARK  214  A    between atoms: _504  and  _507
REMARK  215  A    between atoms: _507  and  _508
REMARK  216  A    between atoms: _511  and  _513
REMARK  217  A    between atoms: _513  and  _514
REMARK  218  A    between atoms: _513  and  _516
REMARK  219  A    between atoms: _516  and  _517
REMARK  220  A    between atoms: _520  and  _522
REMARK  221  A    between atoms: _522  and  _523
REMARK  222  A    between atoms: _522  and  _525
REMARK  223  A    between atoms: _525  and  _526
REMARK  224  A    between atoms: _531  and  _533
REMARK  225  A    between atoms: _533  and  _534
REMARK  226  A    between atoms: _533  and  _536
REMARK                            x       y       z     vdW  Elec       q    Type
REMARK                         _______ _______ _______ _____ _____    ______ ____
ROOT
ATOM      1  CA  GLU A   5      24.932  47.996  10.968  0.00  0.00    +0.149 C 
ENDROOT
BRANCH   1   3
ATOM      2  C   ALA A   4      23.766  49.754  12.179  0.00  0.00    +0.241 C 
ATOM      3  N   GLU A   5      24.035  48.446  12.024  0.00  0.00    -0.297 N 
ATOM      4  H   GLU A   5      23.600  47.750  12.663  0.00  0.00    +0.150 HD
ATOM      5  O   ALA A   4      24.262  50.639  11.473  0.00  0.00    -0.273 OA
BRANCH   2   6
ATOM      6  CA  ALA A   4      22.843  50.112  13.310  0.00  0.00    +0.149 C 
ATOM      7  CB  ALA A   4      23.614  50.036  14.644  0.00  0.00    +0.031 C 
BRANCH   6   9
ATOM      8  C   GLY A   3      20.880  49.159  12.239  0.00  0.00    +0.243 C 
ATOM      9  N   ALA A   4      21.706  49.152  13.305  0.00  0.00    -0.297 N 
ATOM     10  H   ALA A   4      21.553  48.497  14.098  0.00  0.00    +0.150 HD
ATOM     11  O   GLY A   3      21.064  49.904  11.305  0.00  0.00    -0.273 OA
BRANCH   8  12
ATOM     12  CA  GLY A   3      19.713  48.184  12.234  0.00  0.00    +0.176 C 
BRANCH  12  14
ATOM     13  C   THR A   2      21.132  46.099  12.079  0.00  0.00    +0.243 C 
ATOM     14  N   GLY A   3      20.199  46.844  12.735  0.00  0.00    -0.295 N 
ATOM     15  H   GLY A   3      19.803  46.473  13.622  0.00  0.00    +0.150 HD
ATOM     16  O   THR A   2      21.755  46.460  11.055  0.00  0.00    -0.273 OA
BRANCH  13  17
ATOM     17  CA  THR A   2      21.485  44.809  12.746  0.00  0.00    +0.176 C 
BRANCH  17  20
ATOM     18  C   SER A   1      21.689  42.635  11.735  0.00  0.00    +0.241 C 
ATOM     19  O   SER A   1      20.649  42.254  12.299  0.00  0.00    -0.274 OA
ATOM     20  N   THR A   2      22.185  43.867  11.884  0.00  0.00    -0.295 N 
ATOM     21  H   THR A   2      23.057  44.148  11.392  0.00  0.00    +0.150 HD
BRANCH  18  22
ATOM     22  CA  SER A   1      22.396  41.719  10.807  0.00  0.00    +0.174 C 
BRANCH  22  23
ATOM     23  N   SER A   1      22.932  42.254   9.516  0.00  0.00    -0.236 NA
ATOM     24  H   SER A   1      23.615  43.038   9.538  0.00  0.00    +0.142 HD
ENDBRANCH  22  23
BRANCH  22  25
ATOM     25  CB  SER A   1      23.470  40.978  11.573  0.00  0.00    +0.163 C 
BRANCH  25  26
ATOM     26  OG  SER A   1      24.154  40.054  10.703  0.00  0.00    -0.380 OA
ATOM     27  H   SER A   1      23.504  39.401  10.341  0.00  0.00    +0.211 HD
ENDBRANCH  25  26
ENDBRANCH  22  25
ENDBRANCH  18  22
ENDBRANCH  17  20
BRANCH  17  28
ATOM     28  CB  THR A   2      22.319  45.158  14.060  0.00  0.00    +0.137 C 
ATOM     29  CG2 THR A   2      22.843  43.860  14.674  0.00  0.00    +0.034 C 
BRANCH  28  30
ATOM     30  OG1 THR A   2      23.384  46.116  13.724  0.00  0.00    -0.382 OA
ATOM     31  HG1 THR A   2      23.901  46.332  14.540  0.00  0.00    +0.210 HD
ENDBRANCH  28  30
ENDBRANCH  17  28
ENDBRANCH  13  17
ENDBRANCH  12  14
ENDBRANCH   8  12
ENDBRANCH   6   9
ENDBRANCH   2   6
ENDBRANCH   1   3
BRANCH   1  32
ATOM     32  C   GLU A   5      24.380  48.456   9.624  0.00  0.00    +0.241 C 
ATOM     33  N   SER A   6      23.087  48.314   9.416  0.00  0.00    -0.295 N 
ATOM     34  H   SER A   6      22.490  47.900  10.160  0.00  0.00    +0.150 HD
ATOM     35  O   GLU A   5      25.083  48.953   8.842  0.00  0.00    -0.273 OA
BRANCH  33  36
ATOM     36  CA  SER A   6      22.474  48.734   8.142  0.00  0.00    +0.178 C 
BRANCH  36  37
ATOM     37  C   SER A   6      22.644  50.241   8.032  0.00  0.00    +0.243 C 
ATOM     38  N   ASN A   7      22.505  51.007   9.090  0.00  0.00    -0.297 N 
ATOM     39  H   ASN A   7      22.238  50.628  10.021  0.00  0.00    +0.150 HD
ATOM     40  O   SER A   6      23.020  50.745   6.988  0.00  0.00    -0.273 OA
BRANCH  38  41
ATOM     41  CA  ASN A   7      22.757  52.461   8.861  0.00  0.00    +0.158 C 
BRANCH  41  42
ATOM     42  C   ASN A   7      24.220  52.803   8.600  0.00  0.00    +0.241 C 
ATOM     43  N   GLU A   8      25.123  52.033   9.207  0.00  0.00    -0.298 N 
ATOM     44  H   GLU A   8      24.820  51.271   9.847  0.00  0.00    +0.150 HD
ATOM     45  O   ASN A   7      24.541  53.780   7.884  0.00  0.00    -0.273 OA
BRANCH  43  46
ATOM     46  CA  GLU A   8      26.572  52.277   8.958  0.00  0.00    +0.137 C 
BRANCH  46  47
ATOM     47  C   GLU A   8      26.862  51.970   7.438  0.00  0.00    +0.227 C 
ATOM     48  O   GLU A   8      27.556  52.677   6.751  0.00  0.00    -0.286 OA
ENDBRANCH  46  47
BRANCH  46  49
ATOM     49  CB  GLU A   8      27.367  51.278   9.798  0.00  0.00    +0.039 C 
BRANCH  49  50
ATOM     50  CG  GLU A   8      27.272  51.605  11.360  0.00  0.00    +0.116 C 
BRANCH  50  51
ATOM     51  CD  GLU A   8      28.350  52.534  11.910  0.00  0.00    +0.365 C 
ATOM     52  OE2 GLU A   8      28.330  52.755  13.165  0.00  0.00    -0.246 OA
ATOM     53  OE1 GLU A   8      29.244  53.008  11.150  0.00  0.00    -0.246 OA
ENDBRANCH  50  51
ENDBRANCH  49  50
ENDBRANCH  46  49
ENDBRANCH  43  46
ENDBRANCH  41  42
BRANCH  41  54
ATOM     54  CB  ASN A   7      22.176  53.412   9.918  0.00  0.00    +0.114 C 
BRANCH  54  55
ATOM     55  CG  ASN A   7      20.646  53.249  10.108  0.00  0.00    +0.222 C 
ATOM     56  ND2 ASN A   7      20.174  53.052  11.384  0.00  0.00    -0.329 N 
ATOM     57 HD21 ASN A   7      20.837  53.025  12.185  0.00  0.00    +0.145 HD
ATOM     58 HD22 ASN A   7      19.154  52.930  11.548  0.00  0.00    +0.145 HD
ATOM     59  OD1 ASN A   7      19.921  53.288   9.151  0.00  0.00    -0.275 OA
ENDBRANCH  54  55
ENDBRANCH  41  54
ENDBRANCH  38  41
ENDBRANCH  36  37
BRANCH  36  60
ATOM     60  CB  SER A   6      20.992  48.286   8.054  0.00  0.00    +0.166 C 
BRANCH  60  61
ATOM     61  OG  SER A   6      20.155  49.093   8.860  0.00  0.00    -0.380 OA
ATOM     62  H   SER A   6      20.446  49.028   9.804  0.00  0.00    +0.211 HD
ENDBRANCH  60  61
ENDBRANCH  36  60
ENDBRANCH  33  36
ENDBRANCH   1  32
BRANCH   1  63
ATOM     63  CB  GLU A   5      24.871  46.511  10.956  0.00  0.00    +0.041 C 
BRANCH  63  64
ATOM     64  CG  GLU A   5      26.070  45.869  10.359  0.00  0.00    +0.116 C 
BRANCH  64  65
ATOM     65  CD  GLU A   5      25.938  44.320  10.269  0.00  0.00    +0.365 C 
ATOM     66  OE2 GLU A   5      24.809  43.788  10.417  0.00  0.00    -0.246 OA
ATOM     67  OE1 GLU A   5      26.972  43.671  10.055  0.00  0.00    -0.246 OA
ENDBRANCH  64  65
ENDBRANCH  63  64
ENDBRANCH   1  63
TORSDOF 30
REMARK  Name = ../refined-set-2016/1m0q/1m0q_pocket.pdb
REMARK  226 active torsions:
REMARK  status: ('A' for Active; 'I' for Inactive)
REMARK    1  A    between atoms: _1  and  _3
REMARK    2  A    between atoms: _3  and  _4
REMARK    3  A    between atoms: _3  and  _6
REMARK    4  A    between atoms: _6  and  _7
REMARK    5  A    between atoms: _10  and  _12
REMARK    6  A    between atoms: _12  and  _13
REMARK    7  A    between atoms: _15  and  _17
REMARK    8  A    between atoms: _17  and  _18
REMARK    9  A    between atoms: _17  and  _20
REMARK   10  A    between atoms: _20  and  _21
REMARK   11  A    between atoms: _21  and  _22
REMARK   12  A    between atoms: _27  and  _29
REMARK   13  A    between atoms: _29  and  _30
REMARK   14  A    between atoms: _29  and  _32
REMARK   15  A    between atoms: _32  and  _33
REMARK   16  A    between atoms: _33  and  _34
REMARK   17  A    between atoms: _36  and  _38
REMARK   18  A    between atoms: _38  and  _39
REMARK   19  A    between atoms: _38  and  _41
REMARK   20  A    between atoms: _41  and  _42
REMARK   21  A    between atoms: _44  and  _46
REMARK   22  A    between atoms: _46  and  _47
REMARK   23  A    between atoms: _46  and  _49
REMARK   24  A    between atoms: _49  and  _50
REMARK   25  A    between atoms: _52  and  _54
REMARK   26  A    between atoms: _54  and  _55
REMARK   27  A    between atoms: _54  and  _57
REMARK   28  A    between atoms: _57  and  _58
REMARK   29  A    between atoms: _61  and  _63
REMARK   30  A    between atoms: _63  and  _64
REMARK   31  A    between atoms: _66  and  _68
REMARK   32  A    between atoms: _68  and  _69
REMARK   33  A    between atoms: _72  and  _74
REMARK   34  A    between atoms: _74  and  _75
REMARK   35  A    between atoms: _74  and  _77
REMARK   36  A    between atoms: _77  and  _78
REMARK   37  A    between atoms: _78  and  _79
REMARK   38  A    between atoms: _82  and  _84
REMARK   39  A    between atoms: _84  and  _85
REMARK   40  A    between atoms: _84  and  _87
REMARK   41  A    between atoms: _87  and  _88
REMARK   42  A    between atoms: _90  and  _92
REMARK   43  A    between atoms: _92  and  _93
REMARK   44  A    between atoms: _92  and  _95
REMARK   45  A    between atoms: _95  and  _96
REMARK   46  A    between atoms: _101  and  _103
REMARK   47  A    between atoms: _103  and  _104
REMARK   48  A    between atoms: _103  and  _106
REMARK   49  A    between atoms: _106  and  _107
REMARK   50  A    between atoms: _107  and  _108
REMARK   51  A    between atoms: _111  and  _113
REMARK   52  A    between atoms: _113  and  _114
REMARK   53  A    between atoms: _113  and  _116
REMARK   54  A    between atoms: _116  and  _117
REMARK   55  A    between atoms: _119  and  _121
REMARK   56  A    between atoms: _121  and  _122
REMARK   57  A    between atoms: _121  and  _124
REMARK   58  A    between atoms: _124  and  _125
REMARK   59  A    between atoms: _135  and  _137
REMARK   60  A    between atoms: _137  and  _138
REMARK   61  A    between atoms: _137  and  _140
REMARK   62  A    between atoms: _140  and  _141
REMARK   63  A    between atoms: _146  and  _148
REMARK   64  A    between atoms: _148  and  _149
REMARK   65  A    between atoms: _151  and  _153
REMARK   66  A    between atoms: _153  and  _154
REMARK   67  A    between atoms: _153  and  _156
REMARK   68  A    between atoms: _156  and  _157
REMARK   69  A    between atoms: _157  and  _158
REMARK   70  A    between atoms: _160  and  _162
REMARK   71  A    between atoms: _162  and  _163
REMARK   72  A    between atoms: _162  and  _165
REMARK   73  A    between atoms: _165  and  _166
REMARK   74  A    between atoms: _169  and  _171
REMARK   75  A    between atoms: _171  and  _172
REMARK   76  A    between atoms: _175  and  _177
REMARK   77  A    between atoms: _177  and  _178
REMARK   78  A    between atoms: _177  and  _180
REMARK   79  A    between atoms: _180  and  _181
REMARK   80  A    between atoms: _184  and  _186
REMARK   81  A    between atoms: _186  and  _187
REMARK   82  A    between atoms: _186  and  _189
REMARK   83  A    between atoms: _189  and  _190
REMARK   84  A    between atoms: _193  and  _195
REMARK   85  A    between atoms: _195  and  _196
REMARK   86  A    between atoms: _199  and  _201
REMARK   87  A    between atoms: _201  and  _202
REMARK   88  A    between atoms: _201  and  _204
REMARK   89  A    between atoms: _204  and  _205
REMARK   90  A    between atoms: _205  and  _206
REMARK   91  A    between atoms: _210  and  _211
REMARK   92  A    between atoms: _216  and  _218
REMARK   93  A    between atoms: _218  and  _219
REMARK   94  A    between atoms: _218  and  _221
REMARK   95  A    between atoms: _221  and  _222
REMARK   96  A    between atoms: _225  and  _227
REMARK   97  A    between atoms: _227  and  _228
REMARK   98  A    between atoms: _227  and  _230
REMARK   99  A    between atoms: _230  and  _231
REMARK  100  A    between atoms: _234  and  _236
REMARK  101  A    between atoms: _236  and  _237
REMARK  102  A    between atoms: _236  and  _239
REMARK  103  A    between atoms: _239  and  _240
REMARK  104  A    between atoms: _242  and  _244
REMARK  105  A    between atoms: _244  and  _245
REMARK  106  A    between atoms: _244  and  _247
REMARK  107  A    between atoms: _247  and  _248
REMARK  108  A    between atoms: _250  and  _252
REMARK  109  A    between atoms: _252  and  _253
REMARK  110  A    between atoms: _255  and  _257
REMARK  111  A    between atoms: _257  and  _258
REMARK  112  A    between atoms: _260  and  _262
REMARK  113  A    between atoms: _262  and  _263
REMARK  114  A    between atoms: _262  and  _265
REMARK  115  A    between atoms: _265  and  _266
REMARK  116  A    between atoms: _269  and  _271
REMARK  117  A    between atoms: _271  and  _272
REMARK  118  A    between atoms: _271  and  _274
REMARK  119  A    between atoms: _274  and  _275
REMARK  120  A    between atoms: _275  and  _276
REMARK  121  A    between atoms: _279  and  _281
REMARK  122  A    between atoms: _281  and  _282
REMARK  123  A    between atoms: _285  and  _287
REMARK  124  A    between atoms: _287  and  _288
REMARK  125  A    between atoms: _287  and  _290
REMARK  126  A    between atoms: _290  and  _291
REMARK  127  A    between atoms: _291  and  _292
REMARK  128  A    between atoms: _297  and  _299
REMARK  129  A    between atoms: _299  and  _300
REMARK  130  A    between atoms: _299  and  _302
REMARK  131  A    between atoms: _302  and  _303
REMARK  132  A    between atoms: _306  and  _308
REMARK  133  A    between atoms: _308  and  _309
REMARK  134  A    between atoms: _311  and  _313
REMARK  135  A    between atoms: _313  and  _314
REMARK  136  A    between atoms: _313  and  _316
REMARK  137  A    between atoms: _316  and  _317
REMARK  138  A    between atoms: _320  and  _322
REMARK  139  A    between atoms: _322  and  _323
REMARK  140  A    between atoms: _322  and  _325
REMARK  141  A    between atoms: _325  and  _326
REMARK  142  A    between atoms: _329  and  _331
REMARK  143  A    between atoms: _331  and  _332
REMARK  144  A    between atoms: _331  and  _334
REMARK  145  A    between atoms: _334  and  _335
REMARK  146  A    between atoms: _337  and  _339
REMARK  147  A    between atoms: _339  and  _340
REMARK  148  A    between atoms: _339  and  _342
REMARK  149  A    between atoms: _342  and  _343
REMARK  150  A    between atoms: _343  and  _344
REMARK  151  A    between atoms: _344  and  _345
REMARK  152  A    between atoms: _345  and  _346
REMARK  153  A    between atoms: _351  and  _352
REMARK  154  A    between atoms: _357  and  _359
REMARK  155  A    between atoms: _359  and  _360
REMARK  156  A    between atoms: _359  and  _362
REMARK  157  A    between atoms: _362  and  _363
REMARK  158  A    between atoms: _366  and  _368
REMARK  159  A    between atoms: _368  and  _369
REMARK  160  A    between atoms: _372  and  _374
REMARK  161  A    between atoms: _374  and  _375
REMARK  162  A    between atoms: _374  and  _377
REMARK  163  A    between atoms: _377  and  _378
REMARK  164  A    between atoms: _383  and  _385
REMARK  165  A    between atoms: _385  and  _386
REMARK  166  A    between atoms: _385  and  _388
REMARK  167  A    between atoms: _391  and  _393
REMARK  168  A    between atoms: _393  and  _394
REMARK  169  A    between atoms: _393  and  _396
REMARK  170  A    between atoms: _396  and  _397
REMARK  171  A    between atoms: _397  and  _398
REMARK  172  A    between atoms: _398  and  _399
REMARK  173  A    between atoms: _408  and  _410
REMARK  174  A    between atoms: _410  and  _411
REMARK  175  A    between atoms: _410  and  _413
REMARK  176  A    between atoms: _413  and  _414
REMARK  177  A    between atoms: _419  and  _421
REMARK  178  A    between atoms: _421  and  _422
REMARK  179  A    between atoms: _421  and  _424
REMARK  180  A    between atoms: _424  and  _425
REMARK  181  A    between atoms: _431  and  _433
REMARK  182  A    between atoms: _433  and  _434
REMARK  183  A    between atoms: _433  and  _436
REMARK  184  A    between atoms: _436  and  _437
REMARK  185  A    between atoms: _439  and  _441
REMARK  186  A    between atoms: _441  and  _442
REMARK  187  A    between atoms: _441  and  _444
REMARK  188  A    between atoms: _444  and  _445
REMARK  189  A    between atoms: _445  and  _446
REMARK  190  A    between atoms: _449  and  _451
REMARK  191  A    between atoms: _451  and  _452
REMARK  192  A    between atoms: _451  and  _454
REMARK  193  A    between atoms: _454  and  _455
REMARK  194  A    between atoms: _458  and  _460
REMARK  195  A    between atoms: _460  and  _461
REMARK  196  A    between atoms: _460  and  _463
REMARK  197  A    between atoms: _463  and  _464
REMARK  198  A    between atoms: _466  and  _468
REMARK  199  A    between atoms: _468  and  _469
REMARK  200  A    between atoms: _468  and  _471
REMARK  201  A    between atoms: _471  and  _472
REMARK  202  A    between atoms: _472  and  _473
REMARK  203  A    between atoms: _476  and  _478
REMARK  204  A    between atoms: _478  and  _479
REMARK  205  A    between atoms: _478  and  _481
REMARK  206  A    between atoms: _481  and  _482
REMARK  207  A    between atoms: _488  and  _490
REMARK  208  A    between atoms: _490  and  _491
REMARK  209  A    between atoms: _490  and  _493
REMARK  210  A    between atoms: _493  and  _494
REMARK  211  A    between atoms: _499  and  _500
REMARK  212  A    between atoms: _502  and  _504
REMARK  213  A    between atoms: _504  and  _505
REMARK  214  A    between atoms: _504  and  _507
REMARK  215  A    between atoms: _507  and  _508
REMARK  216  A    between atoms: _511  and  _513
REMARK  217  A    between atoms: _513  and  _514
REMARK  218  A    between atoms: _513  and  _516
REMARK  219  A    between atoms: _516  and  _517
REMARK  220  A    between atoms: _520  and  _522
REMARK  221  A    between atoms: _522  and  _523
REMARK  222  A    between atoms: _522  and  _525
REMARK  223  A    between atoms: _525  and  _526
REMARK  224  A    between atoms: _531  and  _533
REMARK  225  A    between atoms: _533  and  _534
REMARK  226  A    between atoms: _533  and  _536
REMARK                            x       y       z     vdW  Elec       q    Type
REMARK                         _______ _______ _______ _____ _____    ______ ____
ROOT
ATOM      1  CA  HIS A   3      19.910  55.222  14.563  0.00  0.00    +0.155 C 
ENDROOT
BRANCH   1   3
ATOM      2  C   TRP A   2      18.264  56.292  15.935  0.00  0.00    +0.241 C 
ATOM      3  N   HIS A   3      19.542  56.127  15.638  0.00  0.00    -0.297 N 
ATOM      4  H   HIS A   3      20.275  56.639  16.168  0.00  0.00    +0.150 HD
ATOM      5  O   TRP A   2      17.314  55.675  15.331  0.00  0.00    -0.273 OA
BRANCH   2   6
ATOM      6  CA  TRP A   2      17.959  57.217  17.088  0.00  0.00    +0.153 C 
BRANCH   6   9
ATOM      7  C   SER A   1      17.445  59.657  17.009  0.00  0.00    +0.241 C 
ATOM      8  O   SER A   1      18.079  59.942  18.043  0.00  0.00    -0.274 OA
ATOM      9  N   TRP A   2      17.305  58.416  16.523  0.00  0.00    -0.297 N 
ATOM     10  H   TRP A   2      16.694  58.288  15.691  0.00  0.00    +0.150 HD
BRANCH   7  11
ATOM     11  CA  SER A   1      16.877  60.745  16.103  0.00  0.00    +0.174 C 
BRANCH  11  12
ATOM     12  N   SER A   1      16.684  62.038  16.783  0.00  0.00    -0.236 NA
ATOM     13  H   SER A   1      17.321  62.827  16.553  0.00  0.00    +0.142 HD
ENDBRANCH  11  12
BRANCH  11  14
ATOM     14  CB  SER A   1      17.931  60.924  15.003  0.00  0.00    +0.163 C 
BRANCH  14  15
ATOM     15  OG  SER A   1      19.162  61.124  15.686  0.00  0.00    -0.380 OA
ATOM     16  H   SER A   1      19.889  61.247  15.025  0.00  0.00    +0.211 HD
ENDBRANCH  14  15
ENDBRANCH  11  14
ENDBRANCH   7  11
ENDBRANCH   6   9
BRANCH   6  17
ATOM     17  CB  TRP A   2      17.034  56.411  18.012  0.00  0.00    +0.057 C 
BRANCH  17  18
ATOM     18  CG  TRP A   2      17.722  55.229  18.665  0.00  0.00    -0.002 A 
ATOM     19  CD2 TRP A   2      18.043  55.147  20.053  0.00  0.00    +0.013 A 
ATOM     20  CE3 TRP A   2      17.900  56.047  21.135  0.00  0.00    +0.001 A 
ATOM     21  CZ3 TRP A   2      18.244  55.603  22.409  0.00  0.00    +0.000 A 
ATOM     22  CH2 TRP A   2      18.776  54.279  22.622  0.00  0.00    +0.001 A 
ATOM     23  CZ2 TRP A   2      18.942  53.393  21.595  0.00  0.00    +0.017 A 
ATOM     24  CE2 TRP A   2      18.543  53.819  20.302  0.00  0.00    +0.056 A 
ATOM     25  NE1 TRP A   2      18.595  53.157  19.092  0.00  0.00    -0.352 N 
ATOM     26  HE1 TRP A   2      18.929  52.184  18.940  0.00  0.00    +0.166 HD
ATOM     27  CD1 TRP A   2      18.115  54.033  18.102  0.00  0.00    +0.068 A 
ENDBRANCH  17  18
ENDBRANCH   6  17
ENDBRANCH   2   6
ENDBRANCH   1   3
BRANCH   1  28
ATOM     28  C   HIS A   3      20.783  54.076  15.051  0.00  0.00    +0.241 C 
ATOM     29  N   GLY A   4      21.141  54.048  16.347  0.00  0.00    -0.295 N 
ATOM     30  H   GLY A   4      20.872  54.815  16.996  0.00  0.00    +0.150 HD
ATOM     31  O   HIS A   3      21.046  53.122  14.300  0.00  0.00    -0.273 OA
BRANCH  29  32
ATOM     32  CA  GLY A   4      21.942  52.873  16.824  0.00  0.00    +0.176 C 
BRANCH  32  33
ATOM     33  C   GLY A   4      23.089  53.282  17.697  0.00  0.00    +0.243 C 
ATOM     34  N   MET A   5      23.785  52.267  18.194  0.00  0.00    -0.297 N 
ATOM     35  H   MET A   5      23.580  51.303  17.863  0.00  0.00    +0.150 HD
ATOM     36  O   GLY A   4      23.350  54.508  17.926  0.00  0.00    -0.273 OA
BRANCH  34  37
ATOM     37  CA  MET A   5      24.869  52.475  19.230  0.00  0.00    +0.149 C 
BRANCH  37  38
ATOM     38  C   MET A   5      26.305  52.486  18.694  0.00  0.00    +0.241 C 
ATOM     39  O   MET A   5      27.232  52.781  19.427  0.00  0.00    -0.273 OA
ATOM     40  N   THR A   6      26.472  52.090  17.428  0.00  0.00    -0.296 N 
ATOM     41  H   THR A   6      25.638  51.798  16.880  0.00  0.00    +0.150 HD
BRANCH  40  42
ATOM     42  CA  THR A   6      27.785  52.053  16.786  0.00  0.00    +0.164 C 
BRANCH  42  43
ATOM     43  CB  THR A   6      27.895  50.900  15.776  0.00  0.00    +0.136 C 
ATOM     44  CG2 THR A   6      27.301  49.528  16.445  0.00  0.00    +0.034 C 
BRANCH  43  45
ATOM     45  OG1 THR A   6      27.050  51.211  14.673  0.00  0.00    -0.382 OA
ATOM     46  HG1 THR A   6      27.347  52.061  14.261  0.00  0.00    +0.210 HD
ENDBRANCH  43  45
ENDBRANCH  42  43
BRANCH  42  47
ATOM     47  C   THR A   6      28.160  53.300  16.145  0.00  0.00    +0.229 C 
ATOM     48  O   THR A   6      27.317  54.063  15.672  0.00  0.00    -0.286 OA
ENDBRANCH  42  47
ENDBRANCH  40  42
ENDBRANCH  37  38
BRANCH  37  49
ATOM     49  CB  MET A   5      24.746  51.352  20.312  0.00  0.00    +0.041 C 
BRANCH  49  50
ATOM     50  CG  MET A   5      23.295  51.226  20.972  0.00  0.00    +0.060 C 
BRANCH  50  51
ATOM     51  SD  MET A   5      23.155  52.699  22.169  0.00  0.00    -0.139 S 
ATOM     52  CE  MET A   5      22.027  53.863  21.235  0.00  0.00    +0.069 C 
ENDBRANCH  50  51
ENDBRANCH  49  50
ENDBRANCH  37  49
ENDBRANCH  34  37
ENDBRANCH  32  33
ENDBRANCH  29  32
ENDBRANCH   1  28
BRANCH   1  53
ATOM     53  CB  HIS A   3      20.559  56.022  13.407  0.00  0.00    +0.076 C 
BRANCH  53  54
ATOM     54  CG  HIS A   3      19.646  57.073  12.849  0.00  0.00    +0.082 A 
ATOM     55  CD2 HIS A   3      19.671  58.430  12.961  0.00  0.00    +0.115 A 
ATOM     56  NE2 HIS A   3      18.560  58.915  12.295  0.00  0.00    -0.221 NA
ATOM     57  CE1 HIS A   3      17.858  57.891  11.814  0.00  0.00    +0.199 A 
ATOM     58  ND1 HIS A   3      18.482  56.756  12.146  0.00  0.00    -0.227 NA
ENDBRANCH  53  54
ENDBRANCH   1  53
TORSDOF 23
REMARK  Name = ../refined-set-2016/1m0q/1m0q_pocket.pdb
REMARK  226 active torsions:
REMARK  status: ('A' for Active; 'I' for Inactive)
REMARK    1  A    between atoms: _1  and  _3
REMARK    2  A    between atoms: _3  and  _4
REMARK    3  A    between atoms: _3  and  _6
REMARK    4  A    between atoms: _6  and  _7
REMARK    5  A    between atoms: _10  and  _12
REMARK    6  A    between atoms: _12  and  _13
REMARK    7  A    between atoms: _15  and  _17
REMARK    8  A    between atoms: _17  and  _18
REMARK    9  A    between atoms: _17  and  _20
REMARK   10  A    between atoms: _20  and  _21
REMARK   11  A    between atoms: _21  and  _22
REMARK   12  A    between atoms: _27  and  _29
REMARK   13  A    between atoms: _29  and  _30
REMARK   14  A    between atoms: _29  and  _32
REMARK   15  A    between atoms: _32  and  _33
REMARK   16  A    between atoms: _33  and  _34
REMARK   17  A    between atoms: _36  and  _38
REMARK   18  A    between atoms: _38  and  _39
REMARK   19  A    between atoms: _38  and  _41
REMARK   20  A    between atoms: _41  and  _42
REMARK   21  A    between atoms: _44  and  _46
REMARK   22  A    between atoms: _46  and  _47
REMARK   23  A    between atoms: _46  and  _49
REMARK   24  A    between atoms: _49  and  _50
REMARK   25  A    between atoms: _52  and  _54
REMARK   26  A    between atoms: _54  and  _55
REMARK   27  A    between atoms: _54  and  _57
REMARK   28  A    between atoms: _57  and  _58
REMARK   29  A    between atoms: _61  and  _63
REMARK   30  A    between atoms: _63  and  _64
REMARK   31  A    between atoms: _66  and  _68
REMARK   32  A    between atoms: _68  and  _69
REMARK   33  A    between atoms: _72  and  _74
REMARK   34  A    between atoms: _74  and  _75
REMARK   35  A    between atoms: _74  and  _77
REMARK   36  A    between atoms: _77  and  _78
REMARK   37  A    between atoms: _78  and  _79
REMARK   38  A    between atoms: _82  and  _84
REMARK   39  A    between atoms: _84  and  _85
REMARK   40  A    between atoms: _84  and  _87
REMARK   41  A    between atoms: _87  and  _88
REMARK   42  A    between atoms: _90  and  _92
REMARK   43  A    between atoms: _92  and  _93
REMARK   44  A    between atoms: _92  and  _95
REMARK   45  A    between atoms: _95  and  _96
REMARK   46  A    between atoms: _101  and  _103
REMARK   47  A    between atoms: _103  and  _104
REMARK   48  A    between atoms: _103  and  _106
REMARK   49  A    between atoms: _106  and  _107
REMARK   50  A    between atoms: _107  and  _108
REMARK   51  A    between atoms: _111  and  _113
REMARK   52  A    between atoms: _113  and  _114
REMARK   53  A    between atoms: _113  and  _116
REMARK   54  A    between atoms: _116  and  _117
REMARK   55  A    between atoms: _119  and  _121
REMARK   56  A    between atoms: _121  and  _122
REMARK   57  A    between atoms: _121  and  _124
REMARK   58  A    between atoms: _124  and  _125
REMARK   59  A    between atoms: _135  and  _137
REMARK   60  A    between atoms: _137  and  _138
REMARK   61  A    between atoms: _137  and  _140
REMARK   62  A    between atoms: _140  and  _141
REMARK   63  A    between atoms: _146  and  _148
REMARK   64  A    between atoms: _148  and  _149
REMARK   65  A    between atoms: _151  and  _153
REMARK   66  A    between atoms: _153  and  _154
REMARK   67  A    between atoms: _153  and  _156
REMARK   68  A    between atoms: _156  and  _157
REMARK   69  A    between atoms: _157  and  _158
REMARK   70  A    between atoms: _160  and  _162
REMARK   71  A    between atoms: _162  and  _163
REMARK   72  A    between atoms: _162  and  _165
REMARK   73  A    between atoms: _165  and  _166
REMARK   74  A    between atoms: _169  and  _171
REMARK   75  A    between atoms: _171  and  _172
REMARK   76  A    between atoms: _175  and  _177
REMARK   77  A    between atoms: _177  and  _178
REMARK   78  A    between atoms: _177  and  _180
REMARK   79  A    between atoms: _180  and  _181
REMARK   80  A    between atoms: _184  and  _186
REMARK   81  A    between atoms: _186  and  _187
REMARK   82  A    between atoms: _186  and  _189
REMARK   83  A    between atoms: _189  and  _190
REMARK   84  A    between atoms: _193  and  _195
REMARK   85  A    between atoms: _195  and  _196
REMARK   86  A    between atoms: _199  and  _201
REMARK   87  A    between atoms: _201  and  _202
REMARK   88  A    between atoms: _201  and  _204
REMARK   89  A    between atoms: _204  and  _205
REMARK   90  A    between atoms: _205  and  _206
REMARK   91  A    between atoms: _210  and  _211
REMARK   92  A    between atoms: _216  and  _218
REMARK   93  A    between atoms: _218  and  _219
REMARK   94  A    between atoms: _218  and  _221
REMARK   95  A    between atoms: _221  and  _222
REMARK   96  A    between atoms: _225  and  _227
REMARK   97  A    between atoms: _227  and  _228
REMARK   98  A    between atoms: _227  and  _230
REMARK   99  A    between atoms: _230  and  _231
REMARK  100  A    between atoms: _234  and  _236
REMARK  101  A    between atoms: _236  and  _237
REMARK  102  A    between atoms: _236  and  _239
REMARK  103  A    between atoms: _239  and  _240
REMARK  104  A    between atoms: _242  and  _244
REMARK  105  A    between atoms: _244  and  _245
REMARK  106  A    between atoms: _244  and  _247
REMARK  107  A    between atoms: _247  and  _248
REMARK  108  A    between atoms: _250  and  _252
REMARK  109  A    between atoms: _252  and  _253
REMARK  110  A    between atoms: _255  and  _257
REMARK  111  A    between atoms: _257  and  _258
REMARK  112  A    between atoms: _260  and  _262
REMARK  113  A    between atoms: _262  and  _263
REMARK  114  A    between atoms: _262  and  _265
REMARK  115  A    between atoms: _265  and  _266
REMARK  116  A    between atoms: _269  and  _271
REMARK  117  A    between atoms: _271  and  _272
REMARK  118  A    between atoms: _271  and  _274
REMARK  119  A    between atoms: _274  and  _275
REMARK  120  A    between atoms: _275  and  _276
REMARK  121  A    between atoms: _279  and  _281
REMARK  122  A    between atoms: _281  and  _282
REMARK  123  A    between atoms: _285  and  _287
REMARK  124  A    between atoms: _287  and  _288
REMARK  125  A    between atoms: _287  and  _290
REMARK  126  A    between atoms: _290  and  _291
REMARK  127  A    between atoms: _291  and  _292
REMARK  128  A    between atoms: _297  and  _299
REMARK  129  A    between atoms: _299  and  _300
REMARK  130  A    between atoms: _299  and  _302
REMARK  131  A    between atoms: _302  and  _303
REMARK  132  A    between atoms: _306  and  _308
REMARK  133  A    between atoms: _308  and  _309
REMARK  134  A    between atoms: _311  and  _313
REMARK  135  A    between atoms: _313  and  _314
REMARK  136  A    between atoms: _313  and  _316
REMARK  137  A    between atoms: _316  and  _317
REMARK  138  A    between atoms: _320  and  _322
REMARK  139  A    between atoms: _322  and  _323
REMARK  140  A    between atoms: _322  and  _325
REMARK  141  A    between atoms: _325  and  _326
REMARK  142  A    between atoms: _329  and  _331
REMARK  143  A    between atoms: _331  and  _332
REMARK  144  A    between atoms: _331  and  _334
REMARK  145  A    between atoms: _334  and  _335
REMARK  146  A    between atoms: _337  and  _339
REMARK  147  A    between atoms: _339  and  _340
REMARK  148  A    between atoms: _339  and  _342
REMARK  149  A    between atoms: _342  and  _343
REMARK  150  A    between atoms: _343  and  _344
REMARK  151  A    between atoms: _344  and  _345
REMARK  152  A    between atoms: _345  and  _346
REMARK  153  A    between atoms: _351  and  _352
REMARK  154  A    between atoms: _357  and  _359
REMARK  155  A    between atoms: _359  and  _360
REMARK  156  A    between atoms: _359  and  _362
REMARK  157  A    between atoms: _362  and  _363
REMARK  158  A    between atoms: _366  and  _368
REMARK  159  A    between atoms: _368  and  _369
REMARK  160  A    between atoms: _372  and  _374
REMARK  161  A    between atoms: _374  and  _375
REMARK  162  A    between atoms: _374  and  _377
REMARK  163  A    between atoms: _377  and  _378
REMARK  164  A    between atoms: _383  and  _385
REMARK  165  A    between atoms: _385  and  _386
REMARK  166  A    between atoms: _385  and  _388
REMARK  167  A    between atoms: _391  and  _393
REMARK  168  A    between atoms: _393  and  _394
REMARK  169  A    between atoms: _393  and  _396
REMARK  170  A    between atoms: _396  and  _397
REMARK  171  A    between atoms: _397  and  _398
REMARK  172  A    between atoms: _398  and  _399
REMARK  173  A    between atoms: _408  and  _410
REMARK  174  A    between atoms: _410  and  _411
REMARK  175  A    between atoms: _410  and  _413
REMARK  176  A    between atoms: _413  and  _414
REMARK  177  A    between atoms: _419  and  _421
REMARK  178  A    between atoms: _421  and  _422
REMARK  179  A    between atoms: _421  and  _424
REMARK  180  A    between atoms: _424  and  _425
REMARK  181  A    between atoms: _431  and  _433
REMARK  182  A    between atoms: _433  and  _434
REMARK  183  A    between atoms: _433  and  _436
REMARK  184  A    between atoms: _436  and  _437
REMARK  185  A    between atoms: _439  and  _441
REMARK  186  A    between atoms: _441  and  _442
REMARK  187  A    between atoms: _441  and  _444
REMARK  188  A    between atoms: _444  and  _445
REMARK  189  A    between atoms: _445  and  _446
REMARK  190  A    between atoms: _449  and  _451
REMARK  191  A    between atoms: _451  and  _452
REMARK  192  A    between atoms: _451  and  _454
REMARK  193  A    between atoms: _454  and  _455
REMARK  194  A    between atoms: _458  and  _460
REMARK  195  A    between atoms: _460  and  _461
REMARK  196  A    between atoms: _460  and  _463
REMARK  197  A    between atoms: _463  and  _464
REMARK  198  A    between atoms: _466  and  _468
REMARK  199  A    between atoms: _468  and  _469
REMARK  200  A    between atoms: _468  and  _471
REMARK  201  A    between atoms: _471  and  _472
REMARK  202  A    between atoms: _472  and  _473
REMARK  203  A    between atoms: _476  and  _478
REMARK  204  A    between atoms: _478  and  _479
REMARK  205  A    between atoms: _478  and  _481
REMARK  206  A    between atoms: _481  and  _482
REMARK  207  A    between atoms: _488  and  _490
REMARK  208  A    between atoms: _490  and  _491
REMARK  209  A    between atoms: _490  and  _493
REMARK  210  A    between atoms: _493  and  _494
REMARK  211  A    between atoms: _499  and  _500
REMARK  212  A    between atoms: _502  and  _504
REMARK  213  A    between atoms: _504  and  _505
REMARK  214  A    between atoms: _504  and  _507
REMARK  215  A    between atoms: _507  and  _508
REMARK  216  A    between atoms: _511  and  _513
REMARK  217  A    between atoms: _513  and  _514
REMARK  218  A    between atoms: _513  and  _516
REMARK  219  A    between atoms: _516  and  _517
REMARK  220  A    between atoms: _520  and  _522
REMARK  221  A    between atoms: _522  and  _523
REMARK  222  A    between atoms: _522  and  _525
REMARK  223  A    between atoms: _525  and  _526
REMARK  224  A    between atoms: _531  and  _533
REMARK  225  A    between atoms: _533  and  _534
REMARK  226  A    between atoms: _533  and  _536
REMARK                            x       y       z     vdW  Elec       q    Type
REMARK                         _______ _______ _______ _____ _____    ______ ____
ROOT
ATOM      1  CA  ALA A   1      24.880  55.376  13.558  0.00  0.00    +0.133 C 
ATOM      2  CB  ALA A   1      24.396  53.991  13.753  0.00  0.00    +0.027 C 
ENDROOT
BRANCH   1   3
ATOM      3  N   ALA A   1      26.316  55.331  13.231  0.00  0.00    -0.239 NA
ATOM      4  H   ALA A   1      26.848  54.437  13.238  0.00  0.00    +0.142 HD
ENDBRANCH   1   3
BRANCH   1   5
ATOM      5  C   ALA A   1      24.724  56.218  14.843  0.00  0.00    +0.224 C 
ATOM      6  O   ALA A   1      23.867  57.085  14.966  0.00  0.00    -0.287 OA
ENDBRANCH   1   5
TORSDOF 2
REMARK  Name = ../refined-set-2016/1m0q/1m0q_pocket.pdb
REMARK  226 active torsions:
REMARK  status: ('A' for Active; 'I' for Inactive)
REMARK    1  A    between atoms: _1  and  _3
REMARK    2  A    between atoms: _3  and  _4
REMARK    3  A    between atoms: _3  and  _6
REMARK    4  A    between atoms: _6  and  _7
REMARK    5  A    between atoms: _10  and  _12
REMARK    6  A    between atoms: _12  and  _13
REMARK    7  A    between atoms: _15  and  _17
REMARK    8  A    between atoms: _17  and  _18
REMARK    9  A    between atoms: _17  and  _20
REMARK   10  A    between atoms: _20  and  _21
REMARK   11  A    between atoms: _21  and  _22
REMARK   12  A    between atoms: _27  and  _29
REMARK   13  A    between atoms: _29  and  _30
REMARK   14  A    between atoms: _29  and  _32
REMARK   15  A    between atoms: _32  and  _33
REMARK   16  A    between atoms: _33  and  _34
REMARK   17  A    between atoms: _36  and  _38
REMARK   18  A    between atoms: _38  and  _39
REMARK   19  A    between atoms: _38  and  _41
REMARK   20  A    between atoms: _41  and  _42
REMARK   21  A    between atoms: _44  and  _46
REMARK   22  A    between atoms: _46  and  _47
REMARK   23  A    between atoms: _46  and  _49
REMARK   24  A    between atoms: _49  and  _50
REMARK   25  A    between atoms: _52  and  _54
REMARK   26  A    between atoms: _54  and  _55
REMARK   27  A    between atoms: _54  and  _57
REMARK   28  A    between atoms: _57  and  _58
REMARK   29  A    between atoms: _61  and  _63
REMARK   30  A    between atoms: _63  and  _64
REMARK   31  A    between atoms: _66  and  _68
REMARK   32  A    between atoms: _68  and  _69
REMARK   33  A    between atoms: _72  and  _74
REMARK   34  A    between atoms: _74  and  _75
REMARK   35  A    between atoms: _74  and  _77
REMARK   36  A    between atoms: _77  and  _78
REMARK   37  A    between atoms: _78  and  _79
REMARK   38  A    between atoms: _82  and  _84
REMARK   39  A    between atoms: _84  and  _85
REMARK   40  A    between atoms: _84  and  _87
REMARK   41  A    between atoms: _87  and  _88
REMARK   42  A    between atoms: _90  and  _92
REMARK   43  A    between atoms: _92  and  _93
REMARK   44  A    between atoms: _92  and  _95
REMARK   45  A    between atoms: _95  and  _96
REMARK   46  A    between atoms: _101  and  _103
REMARK   47  A    between atoms: _103  and  _104
REMARK   48  A    between atoms: _103  and  _106
REMARK   49  A    between atoms: _106  and  _107
REMARK   50  A    between atoms: _107  and  _108
REMARK   51  A    between atoms: _111  and  _113
REMARK   52  A    between atoms: _113  and  _114
REMARK   53  A    between atoms: _113  and  _116
REMARK   54  A    between atoms: _116  and  _117
REMARK   55  A    between atoms: _119  and  _121
REMARK   56  A    between atoms: _121  and  _122
REMARK   57  A    between atoms: _121  and  _124
REMARK   58  A    between atoms: _124  and  _125
REMARK   59  A    between atoms: _135  and  _137
REMARK   60  A    between atoms: _137  and  _138
REMARK   61  A    between atoms: _137  and  _140
REMARK   62  A    between atoms: _140  and  _141
REMARK   63  A    between atoms: _146  and  _148
REMARK   64  A    between atoms: _148  and  _149
REMARK   65  A    between atoms: _151  and  _153
REMARK   66  A    between atoms: _153  and  _154
REMARK   67  A    between atoms: _153  and  _156
REMARK   68  A    between atoms: _156  and  _157
REMARK   69  A    between atoms: _157  and  _158
REMARK   70  A    between atoms: _160  and  _162
REMARK   71  A    between atoms: _162  and  _163
REMARK   72  A    between atoms: _162  and  _165
REMARK   73  A    between atoms: _165  and  _166
REMARK   74  A    between atoms: _169  and  _171
REMARK   75  A    between atoms: _171  and  _172
REMARK   76  A    between atoms: _175  and  _177
REMARK   77  A    between atoms: _177  and  _178
REMARK   78  A    between atoms: _177  and  _180
REMARK   79  A    between atoms: _180  and  _181
REMARK   80  A    between atoms: _184  and  _186
REMARK   81  A    between atoms: _186  and  _187
REMARK   82  A    between atoms: _186  and  _189
REMARK   83  A    between atoms: _189  and  _190
REMARK   84  A    between atoms: _193  and  _195
REMARK   85  A    between atoms: _195  and  _196
REMARK   86  A    between atoms: _199  and  _201
REMARK   87  A    between atoms: _201  and  _202
REMARK   88  A    between atoms: _201  and  _204
REMARK   89  A    between atoms: _204  and  _205
REMARK   90  A    between atoms: _205  and  _206
REMARK   91  A    between atoms: _210  and  _211
REMARK   92  A    between atoms: _216  and  _218
REMARK   93  A    between atoms: _218  and  _219
REMARK   94  A    between atoms: _218  and  _221
REMARK   95  A    between atoms: _221  and  _222
REMARK   96  A    between atoms: _225  and  _227
REMARK   97  A    between atoms: _227  and  _228
REMARK   98  A    between atoms: _227  and  _230
REMARK   99  A    between atoms: _230  and  _231
REMARK  100  A    between atoms: _234  and  _236
REMARK  101  A    between atoms: _236  and  _237
REMARK  102  A    between atoms: _236  and  _239
REMARK  103  A    between atoms: _239  and  _240
REMARK  104  A    between atoms: _242  and  _244
REMARK  105  A    between atoms: _244  and  _245
REMARK  106  A    between atoms: _244  and  _247
REMARK  107  A    between atoms: _247  and  _248
REMARK  108  A    between atoms: _250  and  _252
REMARK  109  A    between atoms: _252  and  _253
REMARK  110  A    between atoms: _255  and  _257
REMARK  111  A    between atoms: _257  and  _258
REMARK  112  A    between atoms: _260  and  _262
REMARK  113  A    between atoms: _262  and  _263
REMARK  114  A    between atoms: _262  and  _265
REMARK  115  A    between atoms: _265  and  _266
REMARK  116  A    between atoms: _269  and  _271
REMARK  117  A    between atoms: _271  and  _272
REMARK  118  A    between atoms: _271  and  _274
REMARK  119  A    between atoms: _274  and  _275
REMARK  120  A    between atoms: _275  and  _276
REMARK  121  A    between atoms: _279  and  _281
REMARK  122  A    between atoms: _281  and  _282
REMARK  123  A    between atoms: _285  and  _287
REMARK  124  A    between atoms: _287  and  _288
REMARK  125  A    between atoms: _287  and  _290
REMARK  126  A    between atoms: _290  and  _291
REMARK  127  A    between atoms: _291  and  _292
REMARK  128  A    between atoms: _297  and  _299
REMARK  129  A    between atoms: _299  and  _300
REMARK  130  A    between atoms: _299  and  _302
REMARK  131  A    between atoms: _302  and  _303
REMARK  132  A    between atoms: _306  and  _308
REMARK  133  A    between atoms: _308  and  _309
REMARK  134  A    between atoms: _311  and  _313
REMARK  135  A    between atoms: _313  and  _314
REMARK  136  A    between atoms: _313  and  _316
REMARK  137  A    between atoms: _316  and  _317
REMARK  138  A    between atoms: _320  and  _322
REMARK  139  A    between atoms: _322  and  _323
REMARK  140  A    between atoms: _322  and  _325
REMARK  141  A    between atoms: _325  and  _326
REMARK  142  A    between atoms: _329  and  _331
REMARK  143  A    between atoms: _331  and  _332
REMARK  144  A    between atoms: _331  and  _334
REMARK  145  A    between atoms: _334  and  _335
REMARK  146  A    between atoms: _337  and  _339
REMARK  147  A    between atoms: _339  and  _340
REMARK  148  A    between atoms: _339  and  _342
REMARK  149  A    between atoms: _342  and  _343
REMARK  150  A    between atoms: _343  and  _344
REMARK  151  A    between atoms: _344  and  _345
REMARK  152  A    between atoms: _345  and  _346
REMARK  153  A    between atoms: _351  and  _352
REMARK  154  A    between atoms: _357  and  _359
REMARK  155  A    between atoms: _359  and  _360
REMARK  156  A    between atoms: _359  and  _362
REMARK  157  A    between atoms: _362  and  _363
REMARK  158  A    between atoms: _366  and  _368
REMARK  159  A    between atoms: _368  and  _369
REMARK  160  A    between atoms: _372  and  _374
REMARK  161  A    between atoms: _374  and  _375
REMARK  162  A    between atoms: _374  and  _377
REMARK  163  A    between atoms: _377  and  _378
REMARK  164  A    between atoms: _383  and  _385
REMARK  165  A    between atoms: _385  and  _386
REMARK  166  A    between atoms: _385  and  _388
REMARK  167  A    between atoms: _391  and  _393
REMARK  168  A    between atoms: _393  and  _394
REMARK  169  A    between atoms: _393  and  _396
REMARK  170  A    between atoms: _396  and  _397
REMARK  171  A    between atoms: _397  and  _398
REMARK  172  A    between atoms: _398  and  _399
REMARK  173  A    between atoms: _408  and  _410
REMARK  174  A    between atoms: _410  and  _411
REMARK  175  A    between atoms: _410  and  _413
REMARK  176  A    between atoms: _413  and  _414
REMARK  177  A    between atoms: _419  and  _421
REMARK  178  A    between atoms: _421  and  _422
REMARK  179  A    between atoms: _421  and  _424
REMARK  180  A    between atoms: _424  and  _425
REMARK  181  A    between atoms: _431  and  _433
REMARK  182  A    between atoms: _433  and  _434
REMARK  183  A    between atoms: _433  and  _436
REMARK  184  A    between atoms: _436  and  _437
REMARK  185  A    between atoms: _439  and  _441
REMARK  186  A    between atoms: _441  and  _442
REMARK  187  A    between atoms: _441  and  _444
REMARK  188  A    between atoms: _444  and  _445
REMARK  189  A    between atoms: _445  and  _446
REMARK  190  A    between atoms: _449  and  _451
REMARK  191  A    between atoms: _451  and  _452
REMARK  192  A    between atoms: _451  and  _454
REMARK  193  A    between atoms: _454  and  _455
REMARK  194  A    between atoms: _458  and  _460
REMARK  195  A    between atoms: _460  and  _461
REMARK  196  A    between atoms: _460  and  _463
REMARK  197  A    between atoms: _463  and  _464
REMARK  198  A    between atoms: _466  and  _468
REMARK  199  A    between atoms: _468  and  _469
REMARK  200  A    between atoms: _468  and  _471
REMARK  201  A    between atoms: _471  and  _472
REMARK  202  A    between atoms: _472  and  _473
REMARK  203  A    between atoms: _476  and  _478
REMARK  204  A    between atoms: _478  and  _479
REMARK  205  A    between atoms: _478  and  _481
REMARK  206  A    between atoms: _481  and  _482
REMARK  207  A    between atoms: _488  and  _490
REMARK  208  A    between atoms: _490  and  _491
REMARK  209  A    between atoms: _490  and  _493
REMARK  210  A    between atoms: _493  and  _494
REMARK  211  A    between atoms: _499  and  _500
REMARK  212  A    between atoms: _502  and  _504
REMARK  213  A    between atoms: _504  and  _505
REMARK  214  A    between atoms: _504  and  _507
REMARK  215  A    between atoms: _507  and  _508
REMARK  216  A    between atoms: _511  and  _513
REMARK  217  A    between atoms: _513  and  _514
REMARK  218  A    between atoms: _513  and  _516
REMARK  219  A    between atoms: _516  and  _517
REMARK  220  A    between atoms: _520  and  _522
REMARK  221  A    between atoms: _522  and  _523
REMARK  222  A    between atoms: _522  and  _525
REMARK  223  A    between atoms: _525  and  _526
REMARK  224  A    between atoms: _531  and  _533
REMARK  225  A    between atoms: _533  and  _534
REMARK  226  A    between atoms: _533  and  _536
REMARK                            x       y       z     vdW  Elec       q    Type
REMARK                         _______ _______ _______ _____ _____    ______ ____
ROOT
ATOM      1  CA  THR A   1      21.716  59.716  17.018  0.00  0.00    +0.160 C 
ENDROOT
BRANCH   1   2
ATOM      2  N   THR A   1      22.821  59.973  16.073  0.00  0.00    -0.237 NA
ATOM      3  H   THR A   1      23.794  59.754  16.369  0.00  0.00    +0.142 HD
ENDBRANCH   1   2
BRANCH   1   4
ATOM      4  C   THR A   1      21.680  60.816  17.995  0.00  0.00    +0.227 C 
ATOM      5  O   THR A   1      22.596  61.004  18.791  0.00  0.00    -0.287 OA
ENDBRANCH   1   4
BRANCH   1   6
ATOM      6  CB  THR A   1      21.959  58.480  17.756  0.00  0.00    +0.134 C 
ATOM      7  CG2 THR A   1      20.946  58.364  18.899  0.00  0.00    +0.034 C 
BRANCH   6   8
ATOM      8  OG1 THR A   1      21.754  57.390  16.884  0.00  0.00    -0.383 OA
ATOM      9  HG1 THR A   1      22.381  57.457  16.121  0.00  0.00    +0.210 HD
ENDBRANCH   6   8
ENDBRANCH   1   6
TORSDOF 4
REMARK  Name = ../refined-set-2016/1m0q/1m0q_pocket.pdb
REMARK  226 active torsions:
REMARK  status: ('A' for Active; 'I' for Inactive)
REMARK    1  A    between atoms: _1  and  _3
REMARK    2  A    between atoms: _3  and  _4
REMARK    3  A    between atoms: _3  and  _6
REMARK    4  A    between atoms: _6  and  _7
REMARK    5  A    between atoms: _10  and  _12
REMARK    6  A    between atoms: _12  and  _13
REMARK    7  A    between atoms: _15  and  _17
REMARK    8  A    between atoms: _17  and  _18
REMARK    9  A    between atoms: _17  and  _20
REMARK   10  A    between atoms: _20  and  _21
REMARK   11  A    between atoms: _21  and  _22
REMARK   12  A    between atoms: _27  and  _29
REMARK   13  A    between atoms: _29  and  _30
REMARK   14  A    between atoms: _29  and  _32
REMARK   15  A    between atoms: _32  and  _33
REMARK   16  A    between atoms: _33  and  _34
REMARK   17  A    between atoms: _36  and  _38
REMARK   18  A    between atoms: _38  and  _39
REMARK   19  A    between atoms: _38  and  _41
REMARK   20  A    between atoms: _41  and  _42
REMARK   21  A    between atoms: _44  and  _46
REMARK   22  A    between atoms: _46  and  _47
REMARK   23  A    between atoms: _46  and  _49
REMARK   24  A    between atoms: _49  and  _50
REMARK   25  A    between atoms: _52  and  _54
REMARK   26  A    between atoms: _54  and  _55
REMARK   27  A    between atoms: _54  and  _57
REMARK   28  A    between atoms: _57  and  _58
REMARK   29  A    between atoms: _61  and  _63
REMARK   30  A    between atoms: _63  and  _64
REMARK   31  A    between atoms: _66  and  _68
REMARK   32  A    between atoms: _68  and  _69
REMARK   33  A    between atoms: _72  and  _74
REMARK   34  A    between atoms: _74  and  _75
REMARK   35  A    between atoms: _74  and  _77
REMARK   36  A    between atoms: _77  and  _78
REMARK   37  A    between atoms: _78  and  _79
REMARK   38  A    between atoms: _82  and  _84
REMARK   39  A    between atoms: _84  and  _85
REMARK   40  A    between atoms: _84  and  _87
REMARK   41  A    between atoms: _87  and  _88
REMARK   42  A    between atoms: _90  and  _92
REMARK   43  A    between atoms: _92  and  _93
REMARK   44  A    between atoms: _92  and  _95
REMARK   45  A    between atoms: _95  and  _96
REMARK   46  A    between atoms: _101  and  _103
REMARK   47  A    between atoms: _103  and  _104
REMARK   48  A    between atoms: _103  and  _106
REMARK   49  A    between atoms: _106  and  _107
REMARK   50  A    between atoms: _107  and  _108
REMARK   51  A    between atoms: _111  and  _113
REMARK   52  A    between atoms: _113  and  _114
REMARK   53  A    between atoms: _113  and  _116
REMARK   54  A    between atoms: _116  and  _117
REMARK   55  A    between atoms: _119  and  _121
REMARK   56  A    between atoms: _121  and  _122
REMARK   57  A    between atoms: _121  and  _124
REMARK   58  A    between atoms: _124  and  _125
REMARK   59  A    between atoms: _135  and  _137
REMARK   60  A    between atoms: _137  and  _138
REMARK   61  A    between atoms: _137  and  _140
REMARK   62  A    between atoms: _140  and  _141
REMARK   63  A    between atoms: _146  and  _148
REMARK   64  A    between atoms: _148  and  _149
REMARK   65  A    between atoms: _151  and  _153
REMARK   66  A    between atoms: _153  and  _154
REMARK   67  A    between atoms: _153  and  _156
REMARK   68  A    between atoms: _156  and  _157
REMARK   69  A    between atoms: _157  and  _158
REMARK   70  A    between atoms: _160  and  _162
REMARK   71  A    between atoms: _162  and  _163
REMARK   72  A    between atoms: _162  and  _165
REMARK   73  A    between atoms: _165  and  _166
REMARK   74  A    between atoms: _169  and  _171
REMARK   75  A    between atoms: _171  and  _172
REMARK   76  A    between atoms: _175  and  _177
REMARK   77  A    between atoms: _177  and  _178
REMARK   78  A    between atoms: _177  and  _180
REMARK   79  A    between atoms: _180  and  _181
REMARK   80  A    between atoms: _184  and  _186
REMARK   81  A    between atoms: _186  and  _187
REMARK   82  A    between atoms: _186  and  _189
REMARK   83  A    between atoms: _189  and  _190
REMARK   84  A    between atoms: _193  and  _195
REMARK   85  A    between atoms: _195  and  _196
REMARK   86  A    between atoms: _199  and  _201
REMARK   87  A    between atoms: _201  and  _202
REMARK   88  A    between atoms: _201  and  _204
REMARK   89  A    between atoms: _204  and  _205
REMARK   90  A    between atoms: _205  and  _206
REMARK   91  A    between atoms: _210  and  _211
REMARK   92  A    between atoms: _216  and  _218
REMARK   93  A    between atoms: _218  and  _219
REMARK   94  A    between atoms: _218  and  _221
REMARK   95  A    between atoms: _221  and  _222
REMARK   96  A    between atoms: _225  and  _227
REMARK   97  A    between atoms: _227  and  _228
REMARK   98  A    between atoms: _227  and  _230
REMARK   99  A    between atoms: _230  and  _231
REMARK  100  A    between atoms: _234  and  _236
REMARK  101  A    between atoms: _236  and  _237
REMARK  102  A    between atoms: _236  and  _239
REMARK  103  A    between atoms: _239  and  _240
REMARK  104  A    between atoms: _242  and  _244
REMARK  105  A    between atoms: _244  and  _245
REMARK  106  A    between atoms: _244  and  _247
REMARK  107  A    between atoms: _247  and  _248
REMARK  108  A    between atoms: _250  and  _252
REMARK  109  A    between atoms: _252  and  _253
REMARK  110  A    between atoms: _255  and  _257
REMARK  111  A    between atoms: _257  and  _258
REMARK  112  A    between atoms: _260  and  _262
REMARK  113  A    between atoms: _262  and  _263
REMARK  114  A    between atoms: _262  and  _265
REMARK  115  A    between atoms: _265  and  _266
REMARK  116  A    between atoms: _269  and  _271
REMARK  117  A    between atoms: _271  and  _272
REMARK  118  A    between atoms: _271  and  _274
REMARK  119  A    between atoms: _274  and  _275
REMARK  120  A    between atoms: _275  and  _276
REMARK  121  A    between atoms: _279  and  _281
REMARK  122  A    between atoms: _281  and  _282
REMARK  123  A    between atoms: _285  and  _287
REMARK  124  A    between atoms: _287  and  _288
REMARK  125  A    between atoms: _287  and  _290
REMARK  126  A    between atoms: _290  and  _291
REMARK  127  A    between atoms: _291  and  _292
REMARK  128  A    between atoms: _297  and  _299
REMARK  129  A    between atoms: _299  and  _300
REMARK  130  A    between atoms: _299  and  _302
REMARK  131  A    between atoms: _302  and  _303
REMARK  132  A    between atoms: _306  and  _308
REMARK  133  A    between atoms: _308  and  _309
REMARK  134  A    between atoms: _311  and  _313
REMARK  135  A    between atoms: _313  and  _314
REMARK  136  A    between atoms: _313  and  _316
REMARK  137  A    between atoms: _316  and  _317
REMARK  138  A    between atoms: _320  and  _322
REMARK  139  A    between atoms: _322  and  _323
REMARK  140  A    between atoms: _322  and  _325
REMARK  141  A    between atoms: _325  and  _326
REMARK  142  A    between atoms: _329  and  _331
REMARK  143  A    between atoms: _331  and  _332
REMARK  144  A    between atoms: _331  and  _334
REMARK  145  A    between atoms: _334  and  _335
REMARK  146  A    between atoms: _337  and  _339
REMARK  147  A    between atoms: _339  and  _340
REMARK  148  A    between atoms: _339  and  _342
REMARK  149  A    between atoms: _342  and  _343
REMARK  150  A    between atoms: _343  and  _344
REMARK  151  A    between atoms: _344  and  _345
REMARK  152  A    between atoms: _345  and  _346
REMARK  153  A    between atoms: _351  and  _352
REMARK  154  A    between atoms: _357  and  _359
REMARK  155  A    between atoms: _359  and  _360
REMARK  156  A    between atoms: _359  and  _362
REMARK  157  A    between atoms: _362  and  _363
REMARK  158  A    between atoms: _366  and  _368
REMARK  159  A    between atoms: _368  and  _369
REMARK  160  A    between atoms: _372  and  _374
REMARK  161  A    between atoms: _374  and  _375
REMARK  162  A    between atoms: _374  and  _377
REMARK  163  A    between atoms: _377  and  _378
REMARK  164  A    between atoms: _383  and  _385
REMARK  165  A    between atoms: _385  and  _386
REMARK  166  A    between atoms: _385  and  _388
REMARK  167  A    between atoms: _391  and  _393
REMARK  168  A    between atoms: _393  and  _394
REMARK  169  A    between atoms: _393  and  _396
REMARK  170  A    between atoms: _396  and  _397
REMARK  171  A    between atoms: _397  and  _398
REMARK  172  A    between atoms: _398  and  _399
REMARK  173  A    between atoms: _408  and  _410
REMARK  174  A    between atoms: _410  and  _411
REMARK  175  A    between atoms: _410  and  _413
REMARK  176  A    between atoms: _413  and  _414
REMARK  177  A    between atoms: _419  and  _421
REMARK  178  A    between atoms: _421  and  _422
REMARK  179  A    between atoms: _421  and  _424
REMARK  180  A    between atoms: _424  and  _425
REMARK  181  A    between atoms: _431  and  _433
REMARK  182  A    between atoms: _433  and  _434
REMARK  183  A    between atoms: _433  and  _436
REMARK  184  A    between atoms: _436  and  _437
REMARK  185  A    between atoms: _439  and  _441
REMARK  186  A    between atoms: _441  and  _442
REMARK  187  A    between atoms: _441  and  _444
REMARK  188  A    between atoms: _444  and  _445
REMARK  189  A    between atoms: _445  and  _446
REMARK  190  A    between atoms: _449  and  _451
REMARK  191  A    between atoms: _451  and  _452
REMARK  192  A    between atoms: _451  and  _454
REMARK  193  A    between atoms: _454  and  _455
REMARK  194  A    between atoms: _458  and  _460
REMARK  195  A    between atoms: _460  and  _461
REMARK  196  A    between atoms: _460  and  _463
REMARK  197  A    between atoms: _463  and  _464
REMARK  198  A    between atoms: _466  and  _468
REMARK  199  A    between atoms: _468  and  _469
REMARK  200  A    between atoms: _468  and  _471
REMARK  201  A    between atoms: _471  and  _472
REMARK  202  A    between atoms: _472  and  _473
REMARK  203  A    between atoms: _476  and  _478
REMARK  204  A    between atoms: _478  and  _479
REMARK  205  A    between atoms: _478  and  _481
REMARK  206  A    between atoms: _481  and  _482
REMARK  207  A    between atoms: _488  and  _490
REMARK  208  A    between atoms: _490  and  _491
REMARK  209  A    between atoms: _490  and  _493
REMARK  210  A    between atoms: _493  and  _494
REMARK  211  A    between atoms: _499  and  _500
REMARK  212  A    between atoms: _502  and  _504
REMARK  213  A    between atoms: _504  and  _505
REMARK  214  A    between atoms: _504  and  _507
REMARK  215  A    between atoms: _507  and  _508
REMARK  216  A    between atoms: _511  and  _513
REMARK  217  A    between atoms: _513  and  _514
REMARK  218  A    between atoms: _513  and  _516
REMARK  219  A    between atoms: _516  and  _517
REMARK  220  A    between atoms: _520  and  _522
REMARK  221  A    between atoms: _522  and  _523
REMARK  222  A    between atoms: _522  and  _525
REMARK  223  A    between atoms: _525  and  _526
REMARK  224  A    between atoms: _531  and  _533
REMARK  225  A    between atoms: _533  and  _534
REMARK  226  A    between atoms: _533  and  _536
REMARK                            x       y       z     vdW  Elec       q    Type
REMARK                         _______ _______ _______ _____ _____    ______ ____
ROOT
ATOM      1  CA  ILE A   5       8.381  58.420  12.143  0.00  0.00    +0.149 C 
ENDROOT
BRANCH   1   2
ATOM      2  C   ILE A   5       9.517  58.131  13.235  0.00  0.00    +0.241 C 
ATOM      3  N   LEU A   6       9.905  59.162  13.984  0.00  0.00    -0.297 N 
ATOM      4  H   LEU A   6       9.434  60.080  13.854  0.00  0.00    +0.150 HD
ATOM      5  O   ILE A   5      10.049  57.022  13.318  0.00  0.00    -0.273 OA
BRANCH   3   6
ATOM      6  CA  LEU A   6      10.981  59.051  14.994  0.00  0.00    +0.149 C 
BRANCH   6   7
ATOM      7  C   LEU A   6      10.392  58.331  16.129  0.00  0.00    +0.241 C 
ATOM      8  O   LEU A   6       9.432  58.778  16.715  0.00  0.00    -0.273 OA
ATOM      9  N   SER A   7      10.877  57.154  16.364  0.00  0.00    -0.295 N 
ATOM     10  H   SER A   7      11.697  56.797  15.833  0.00  0.00    +0.150 HD
BRANCH   9  11
ATOM     11  CA  SER A   7      10.233  56.337  17.405  0.00  0.00    +0.178 C 
BRANCH  11  12
ATOM     12  C   SER A   7      10.780  56.628  18.797  0.00  0.00    +0.243 C 
ATOM     13  O   SER A   7      10.113  57.239  19.621  0.00  0.00    -0.273 OA
ATOM     14  N   SER A   8      12.027  56.226  19.013  0.00  0.00    -0.295 N 
ATOM     15  H   SER A   8      12.543  55.735  18.256  0.00  0.00    +0.150 HD
BRANCH  14  16
ATOM     16  CA  SER A   8      12.669  56.455  20.260  0.00  0.00    +0.178 C 
BRANCH  16  17
ATOM     17  C   SER A   8      12.513  57.921  20.609  0.00  0.00    +0.243 C 
ATOM     18  O   SER A   8      12.380  58.242  21.764  0.00  0.00    -0.273 OA
ATOM     19  N   GLY A   9      12.466  58.801  19.608  0.00  0.00    -0.295 N 
ATOM     20  H   GLY A   9      12.514  58.441  18.634  0.00  0.00    +0.150 HD
BRANCH  19  21
ATOM     21  CA  GLY A   9      12.348  60.272  19.810  0.00  0.00    +0.176 C 
BRANCH  21  22
ATOM     22  C   GLY A   9      10.951  60.750  20.222  0.00  0.00    +0.243 C 
ATOM     23  O   GLY A   9      10.721  61.969  20.472  0.00  0.00    -0.273 OA
ATOM     24  N   GLY A  10      10.018  59.830  20.362  0.00  0.00    -0.296 N 
ATOM     25  H   GLY A  10      10.213  58.827  20.169  0.00  0.00    +0.150 HD
BRANCH  24  26
ATOM     26  CA  GLY A  10       8.693  60.280  20.802  0.00  0.00    +0.163 C 
BRANCH  26  27
ATOM     27  C   GLY A  10       7.519  60.120  19.786  0.00  0.00    +0.229 C 
ATOM     28  O   GLY A  10       6.514  60.880  19.870  0.00  0.00    -0.286 OA
ENDBRANCH  26  27
ENDBRANCH  24  26
ENDBRANCH  21  22
ENDBRANCH  19  21
ENDBRANCH  16  17
BRANCH  16  29
ATOM     29  CB  SER A   8      14.155  56.064  20.179  0.00  0.00    +0.166 C 
BRANCH  29  30
ATOM     30  OG  SER A   8      14.294  54.642  20.131  0.00  0.00    -0.380 OA
ATOM     31  H   SER A   8      13.824  54.292  19.333  0.00  0.00    +0.211 HD
ENDBRANCH  29  30
ENDBRANCH  16  29
ENDBRANCH  14  16
ENDBRANCH  11  12
BRANCH  11  32
ATOM     32  CB  SER A   7      10.418  54.849  17.085  0.00  0.00    +0.166 C 
BRANCH  32  33
ATOM     33  OG  SER A   7       9.842  53.995  18.102  0.00  0.00    -0.380 OA
ATOM     34  H   SER A   7       9.985  53.047  17.855  0.00  0.00    +0.211 HD
ENDBRANCH  32  33
ENDBRANCH  11  32
ENDBRANCH   9  11
ENDBRANCH   6   7
BRANCH   6  35
ATOM     35  CB  LEU A   6      11.281  60.448  15.481  0.00  0.00    +0.029 C 
BRANCH  35  36
ATOM     36  CG  LEU A   6      12.174  61.146  14.457  0.00  0.00    +0.002 C 
ATOM     37  CD2 LEU A   6      12.837  62.406  15.044  0.00  0.00    +0.000 C 
ATOM     38  CD1 LEU A   6      11.377  61.496  13.118  0.00  0.00    +0.000 C 
ENDBRANCH  35  36
ENDBRANCH   6  35
ENDBRANCH   3   6
ENDBRANCH   1   2
BRANCH   1  40
ATOM     39  C   PRO A   4       8.917  59.004   9.780  0.00  0.00    +0.241 C 
ATOM     40  N   ILE A   5       8.978  58.157  10.812  0.00  0.00    -0.297 N 
ATOM     41  H   ILE A   5       9.477  57.255  10.672  0.00  0.00    +0.150 HD
ATOM     42  O   PRO A   4       8.262  60.047   9.779  0.00  0.00    -0.273 OA
BRANCH  39  46
ATOM     43  C   GLU A   3      11.938  58.729   9.869  0.00  0.00    +0.244 C 
ATOM     44  O   GLU A   3      11.705  59.923  10.164  0.00  0.00    -0.273 OA
ATOM     45  N   PRO A   4      11.078  58.002   9.175  0.00  0.00    -0.272 N 
ATOM     46  CA  PRO A   4       9.798  58.605   8.625  0.00  0.00    +0.152 C 
ATOM     47  CB  PRO A   4       9.183  57.416   7.859  0.00  0.00    +0.031 C 
ATOM     48  CG  PRO A   4      10.455  56.568   7.388  0.00  0.00    +0.024 C 
ATOM     49  CD  PRO A   4      11.471  56.726   8.526  0.00  0.00    +0.094 C 
BRANCH  43  50
ATOM     50  CA  GLU A   3      13.265  58.001  10.356  0.00  0.00    +0.149 C 
BRANCH  50  52
ATOM     51  C   ALA A   2      15.035  58.958   8.903  0.00  0.00    +0.241 C 
ATOM     52  N   GLU A   3      14.325  58.996  10.045  0.00  0.00    -0.297 N 
ATOM     53  H   GLU A   3      14.525  59.748  10.735  0.00  0.00    +0.150 HD
ATOM     54  O   ALA A   2      14.926  58.047   8.029  0.00  0.00    -0.273 OA
BRANCH  51  55
ATOM     55  CA  ALA A   2      15.929  60.152   8.713  0.00  0.00    +0.149 C 
ATOM     56  CB  ALA A   2      15.166  61.161   7.913  0.00  0.00    +0.031 C 
BRANCH  55  59
ATOM     57  C   ILE A   1      18.225  60.661   8.329  0.00  0.00    +0.238 C 
ATOM     58  O   ILE A   1      18.212  61.611   9.135  0.00  0.00    -0.274 OA
ATOM     59  N   ALA A   2      17.172  59.904   8.090  0.00  0.00    -0.297 N 
ATOM     60  H   ALA A   2      17.259  59.107   7.428  0.00  0.00    +0.150 HD
BRANCH  57  61
ATOM     61  CA  ILE A   1      19.449  60.404   7.451  0.00  0.00    +0.145 C 
BRANCH  61  62
ATOM     62  CB  ILE A   1      20.491  59.463   8.123  0.00  0.00    +0.025 C 
ATOM     63  CG2 ILE A   1      21.166  60.192   9.343  0.00  0.00    +0.002 C 
BRANCH  62  64
ATOM     64  CG1 ILE A   1      19.815  58.140   8.488  0.00  0.00    +0.002 C 
ATOM     65  CD1 ILE A   1      20.839  57.000   8.902  0.00  0.00    +0.000 C 
ENDBRANCH  62  64
ENDBRANCH  61  62
BRANCH  61  66
ATOM     66  N   ILE A   1      20.041  61.732   7.105  0.00  0.00    -0.238 NA
ATOM     67  H   ILE A   1      20.390  62.369   7.849  0.00  0.00    +0.142 HD
ENDBRANCH  61  66
ENDBRANCH  57  61
ENDBRANCH  55  59
ENDBRANCH  51  55
ENDBRANCH  50  52
BRANCH  50  68
ATOM     68  CB  GLU A   3      13.143  57.830  11.895  0.00  0.00    +0.041 C 
BRANCH  68  69
ATOM     69  CG  GLU A   3      14.290  57.051  12.525  0.00  0.00    +0.116 C 
BRANCH  69  70
ATOM     70  CD  GLU A   3      14.272  57.276  14.026  0.00  0.00    +0.365 C 
ATOM     71  OE2 GLU A   3      13.521  56.585  14.756  0.00  0.00    -0.246 OA
ATOM     72  OE1 GLU A   3      14.792  58.334  14.404  0.00  0.00    -0.246 OA
ENDBRANCH  69  70
ENDBRANCH  68  69
ENDBRANCH  50  68
ENDBRANCH  43  50
ENDBRANCH  39  46
ENDBRANCH   1  40
BRANCH   1  73
ATOM     73  CB  ILE A   5       7.167  57.533  12.427  0.00  0.00    +0.027 C 
ATOM     74  CG2 ILE A   5       6.611  57.849  13.777  0.00  0.00    +0.002 C 
BRANCH  73  75
ATOM     75  CG1 ILE A   5       5.993  57.893  11.505  0.00  0.00    +0.002 C 
ATOM     76  CD1 ILE A   5       4.799  56.848  11.571  0.00  0.00    +0.000 C 
ENDBRANCH  73  75
ENDBRANCH   1  73
TORSDOF 32
REMARK  Name = ../refined-set-2016/1m0q/1m0q_pocket.pdb
REMARK  226 active torsions:
REMARK  status: ('A' for Active; 'I' for Inactive)
REMARK    1  A    between atoms: _1  and  _3
REMARK    2  A    between atoms: _3  and  _4
REMARK    3  A    between atoms: _3  and  _6
REMARK    4  A    between atoms: _6  and  _7
REMARK    5  A    between atoms: _10  and  _12
REMARK    6  A    between atoms: _12  and  _13
REMARK    7  A    between atoms: _15  and  _17
REMARK    8  A    between atoms: _17  and  _18
REMARK    9  A    between atoms: _17  and  _20
REMARK   10  A    between atoms: _20  and  _21
REMARK   11  A    between atoms: _21  and  _22
REMARK   12  A    between atoms: _27  and  _29
REMARK   13  A    between atoms: _29  and  _30
REMARK   14  A    between atoms: _29  and  _32
REMARK   15  A    between atoms: _32  and  _33
REMARK   16  A    between atoms: _33  and  _34
REMARK   17  A    between atoms: _36  and  _38
REMARK   18  A    between atoms: _38  and  _39
REMARK   19  A    between atoms: _38  and  _41
REMARK   20  A    between atoms: _41  and  _42
REMARK   21  A    between atoms: _44  and  _46
REMARK   22  A    between atoms: _46  and  _47
REMARK   23  A    between atoms: _46  and  _49
REMARK   24  A    between atoms: _49  and  _50
REMARK   25  A    between atoms: _52  and  _54
REMARK   26  A    between atoms: _54  and  _55
REMARK   27  A    between atoms: _54  and  _57
REMARK   28  A    between atoms: _57  and  _58
REMARK   29  A    between atoms: _61  and  _63
REMARK   30  A    between atoms: _63  and  _64
REMARK   31  A    between atoms: _66  and  _68
REMARK   32  A    between atoms: _68  and  _69
REMARK   33  A    between atoms: _72  and  _74
REMARK   34  A    between atoms: _74  and  _75
REMARK   35  A    between atoms: _74  and  _77
REMARK   36  A    between atoms: _77  and  _78
REMARK   37  A    between atoms: _78  and  _79
REMARK   38  A    between atoms: _82  and  _84
REMARK   39  A    between atoms: _84  and  _85
REMARK   40  A    between atoms: _84  and  _87
REMARK   41  A    between atoms: _87  and  _88
REMARK   42  A    between atoms: _90  and  _92
REMARK   43  A    between atoms: _92  and  _93
REMARK   44  A    between atoms: _92  and  _95
REMARK   45  A    between atoms: _95  and  _96
REMARK   46  A    between atoms: _101  and  _103
REMARK   47  A    between atoms: _103  and  _104
REMARK   48  A    between atoms: _103  and  _106
REMARK   49  A    between atoms: _106  and  _107
REMARK   50  A    between atoms: _107  and  _108
REMARK   51  A    between atoms: _111  and  _113
REMARK   52  A    between atoms: _113  and  _114
REMARK   53  A    between atoms: _113  and  _116
REMARK   54  A    between atoms: _116  and  _117
REMARK   55  A    between atoms: _119  and  _121
REMARK   56  A    between atoms: _121  and  _122
REMARK   57  A    between atoms: _121  and  _124
REMARK   58  A    between atoms: _124  and  _125
REMARK   59  A    between atoms: _135  and  _137
REMARK   60  A    between atoms: _137  and  _138
REMARK   61  A    between atoms: _137  and  _140
REMARK   62  A    between atoms: _140  and  _141
REMARK   63  A    between atoms: _146  and  _148
REMARK   64  A    between atoms: _148  and  _149
REMARK   65  A    between atoms: _151  and  _153
REMARK   66  A    between atoms: _153  and  _154
REMARK   67  A    between atoms: _153  and  _156
REMARK   68  A    between atoms: _156  and  _157
REMARK   69  A    between atoms: _157  and  _158
REMARK   70  A    between atoms: _160  and  _162
REMARK   71  A    between atoms: _162  and  _163
REMARK   72  A    between atoms: _162  and  _165
REMARK   73  A    between atoms: _165  and  _166
REMARK   74  A    between atoms: _169  and  _171
REMARK   75  A    between atoms: _171  and  _172
REMARK   76  A    between atoms: _175  and  _177
REMARK   77  A    between atoms: _177  and  _178
REMARK   78  A    between atoms: _177  and  _180
REMARK   79  A    between atoms: _180  and  _181
REMARK   80  A    between atoms: _184  and  _186
REMARK   81  A    between atoms: _186  and  _187
REMARK   82  A    between atoms: _186  and  _189
REMARK   83  A    between atoms: _189  and  _190
REMARK   84  A    between atoms: _193  and  _195
REMARK   85  A    between atoms: _195  and  _196
REMARK   86  A    between atoms: _199  and  _201
REMARK   87  A    between atoms: _201  and  _202
REMARK   88  A    between atoms: _201  and  _204
REMARK   89  A    between atoms: _204  and  _205
REMARK   90  A    between atoms: _205  and  _206
REMARK   91  A    between atoms: _210  and  _211
REMARK   92  A    between atoms: _216  and  _218
REMARK   93  A    between atoms: _218  and  _219
REMARK   94  A    between atoms: _218  and  _221
REMARK   95  A    between atoms: _221  and  _222
REMARK   96  A    between atoms: _225  and  _227
REMARK   97  A    between atoms: _227  and  _228
REMARK   98  A    between atoms: _227  and  _230
REMARK   99  A    between atoms: _230  and  _231
REMARK  100  A    between atoms: _234  and  _236
REMARK  101  A    between atoms: _236  and  _237
REMARK  102  A    between atoms: _236  and  _239
REMARK  103  A    between atoms: _239  and  _240
REMARK  104  A    between atoms: _242  and  _244
REMARK  105  A    between atoms: _244  and  _245
REMARK  106  A    between atoms: _244  and  _247
REMARK  107  A    between atoms: _247  and  _248
REMARK  108  A    between atoms: _250  and  _252
REMARK  109  A    between atoms: _252  and  _253
REMARK  110  A    between atoms: _255  and  _257
REMARK  111  A    between atoms: _257  and  _258
REMARK  112  A    between atoms: _260  and  _262
REMARK  113  A    between atoms: _262  and  _263
REMARK  114  A    between atoms: _262  and  _265
REMARK  115  A    between atoms: _265  and  _266
REMARK  116  A    between atoms: _269  and  _271
REMARK  117  A    between atoms: _271  and  _272
REMARK  118  A    between atoms: _271  and  _274
REMARK  119  A    between atoms: _274  and  _275
REMARK  120  A    between atoms: _275  and  _276
REMARK  121  A    between atoms: _279  and  _281
REMARK  122  A    between atoms: _281  and  _282
REMARK  123  A    between atoms: _285  and  _287
REMARK  124  A    between atoms: _287  and  _288
REMARK  125  A    between atoms: _287  and  _290
REMARK  126  A    between atoms: _290  and  _291
REMARK  127  A    between atoms: _291  and  _292
REMARK  128  A    between atoms: _297  and  _299
REMARK  129  A    between atoms: _299  and  _300
REMARK  130  A    between atoms: _299  and  _302
REMARK  131  A    between atoms: _302  and  _303
REMARK  132  A    between atoms: _306  and  _308
REMARK  133  A    between atoms: _308  and  _309
REMARK  134  A    between atoms: _311  and  _313
REMARK  135  A    between atoms: _313  and  _314
REMARK  136  A    between atoms: _313  and  _316
REMARK  137  A    between atoms: _316  and  _317
REMARK  138  A    between atoms: _320  and  _322
REMARK  139  A    between atoms: _322  and  _323
REMARK  140  A    between atoms: _322  and  _325
REMARK  141  A    between atoms: _325  and  _326
REMARK  142  A    between atoms: _329  and  _331
REMARK  143  A    between atoms: _331  and  _332
REMARK  144  A    between atoms: _331  and  _334
REMARK  145  A    between atoms: _334  and  _335
REMARK  146  A    between atoms: _337  and  _339
REMARK  147  A    between atoms: _339  and  _340
REMARK  148  A    between atoms: _339  and  _342
REMARK  149  A    between atoms: _342  and  _343
REMARK  150  A    between atoms: _343  and  _344
REMARK  151  A    between atoms: _344  and  _345
REMARK  152  A    between atoms: _345  and  _346
REMARK  153  A    between atoms: _351  and  _352
REMARK  154  A    between atoms: _357  and  _359
REMARK  155  A    between atoms: _359  and  _360
REMARK  156  A    between atoms: _359  and  _362
REMARK  157  A    between atoms: _362  and  _363
REMARK  158  A    between atoms: _366  and  _368
REMARK  159  A    between atoms: _368  and  _369
REMARK  160  A    between atoms: _372  and  _374
REMARK  161  A    between atoms: _374  and  _375
REMARK  162  A    between atoms: _374  and  _377
REMARK  163  A    between atoms: _377  and  _378
REMARK  164  A    between atoms: _383  and  _385
REMARK  165  A    between atoms: _385  and  _386
REMARK  166  A    between atoms: _385  and  _388
REMARK  167  A    between atoms: _391  and  _393
REMARK  168  A    between atoms: _393  and  _394
REMARK  169  A    between atoms: _393  and  _396
REMARK  170  A    between atoms: _396  and  _397
REMARK  171  A    between atoms: _397  and  _398
REMARK  172  A    between atoms: _398  and  _399
REMARK  173  A    between atoms: _408  and  _410
REMARK  174  A    between atoms: _410  and  _411
REMARK  175  A    between atoms: _410  and  _413
REMARK  176  A    between atoms: _413  and  _414
REMARK  177  A    between atoms: _419  and  _421
REMARK  178  A    between atoms: _421  and  _422
REMARK  179  A    between atoms: _421  and  _424
REMARK  180  A    between atoms: _424  and  _425
REMARK  181  A    between atoms: _431  and  _433
REMARK  182  A    between atoms: _433  and  _434
REMARK  183  A    between atoms: _433  and  _436
REMARK  184  A    between atoms: _436  and  _437
REMARK  185  A    between atoms: _439  and  _441
REMARK  186  A    between atoms: _441  and  _442
REMARK  187  A    between atoms: _441  and  _444
REMARK  188  A    between atoms: _444  and  _445
REMARK  189  A    between atoms: _445  and  _446
REMARK  190  A    between atoms: _449  and  _451
REMARK  191  A    between atoms: _451  and  _452
REMARK  192  A    between atoms: _451  and  _454
REMARK  193  A    between atoms: _454  and  _455
REMARK  194  A    between atoms: _458  and  _460
REMARK  195  A    between atoms: _460  and  _461
REMARK  196  A    between atoms: _460  and  _463
REMARK  197  A    between atoms: _463  and  _464
REMARK  198  A    between atoms: _466  and  _468
REMARK  199  A    between atoms: _468  and  _469
REMARK  200  A    between atoms: _468  and  _471
REMARK  201  A    between atoms: _471  and  _472
REMARK  202  A    between atoms: _472  and  _473
REMARK  203  A    between atoms: _476  and  _478
REMARK  204  A    between atoms: _478  and  _479
REMARK  205  A    between atoms: _478  and  _481
REMARK  206  A    between atoms: _481  and  _482
REMARK  207  A    between atoms: _488  and  _490
REMARK  208  A    between atoms: _490  and  _491
REMARK  209  A    between atoms: _490  and  _493
REMARK  210  A    between atoms: _493  and  _494
REMARK  211  A    between atoms: _499  and  _500
REMARK  212  A    between atoms: _502  and  _504
REMARK  213  A    between atoms: _504  and  _505
REMARK  214  A    between atoms: _504  and  _507
REMARK  215  A    between atoms: _507  and  _508
REMARK  216  A    between atoms: _511  and  _513
REMARK  217  A    between atoms: _513  and  _514
REMARK  218  A    between atoms: _513  and  _516
REMARK  219  A    between atoms: _516  and  _517
REMARK  220  A    between atoms: _520  and  _522
REMARK  221  A    between atoms: _522  and  _523
REMARK  222  A    between atoms: _522  and  _525
REMARK  223  A    between atoms: _525  and  _526
REMARK  224  A    between atoms: _531  and  _533
REMARK  225  A    between atoms: _533  and  _534
REMARK  226  A    between atoms: _533  and  _536
REMARK                            x       y       z     vdW  Elec       q    Type
REMARK                         _______ _______ _______ _____ _____    ______ ____
ROOT
ATOM      1  C   ALA A   3      12.703  49.524  11.757  0.00  0.00    +0.241 C 
ATOM      2  N   GLN A   4      11.936  50.532  12.110  0.00  0.00    -0.297 N 
ATOM      3  H   GLN A   4      12.203  51.513  11.889  0.00  0.00    +0.150 HD
ATOM      4  O   ALA A   3      12.400  48.372  11.994  0.00  0.00    -0.273 OA
ENDROOT
BRANCH   1   5
ATOM      5  CA  ALA A   3      14.048  49.889  11.040  0.00  0.00    +0.149 C 
ATOM      6  CB  ALA A   3      15.125  50.247  12.076  0.00  0.00    +0.031 C 
BRANCH   5   8
ATOM      7  C   GLU A   2      12.881  50.974   9.159  0.00  0.00    +0.241 C 
ATOM      8  N   ALA A   3      13.872  51.019  10.067  0.00  0.00    -0.297 N 
ATOM      9  H   ALA A   3      14.516  51.835  10.095  0.00  0.00    +0.150 HD
ATOM     10  O   GLU A   2      12.047  49.976   9.080  0.00  0.00    -0.273 OA
BRANCH   7  11
ATOM     11  CA  GLU A   2      12.773  52.251   8.287  0.00  0.00    +0.149 C 
BRANCH  11  14
ATOM     12  C   ASP A   1      14.517  53.940   8.583  0.00  0.00    +0.239 C 
ATOM     13  O   ASP A   1      13.786  54.533   9.423  0.00  0.00    -0.274 OA
ATOM     14  N   GLU A   2      14.140  52.809   8.024  0.00  0.00    -0.297 N 
ATOM     15  H   GLU A   2      14.794  52.300   7.396  0.00  0.00    +0.150 HD
BRANCH  12  16
ATOM     16  CA  ASP A   1      15.955  54.512   8.219  0.00  0.00    +0.156 C 
BRANCH  16  17
ATOM     17  N   ASP A   1      15.767  55.636   7.298  0.00  0.00    -0.238 NA
ATOM     18  H   ASP A   1      15.652  56.597   7.678  0.00  0.00    +0.142 HD
ENDBRANCH  16  17
BRANCH  16  19
ATOM     19  CB  ASP A   1      16.698  55.084   9.514  0.00  0.00    +0.140 C 
BRANCH  19  20
ATOM     20  CG  ASP A   1      16.922  53.994  10.559  0.00  0.00    +0.367 C 
ATOM     21  OD2 ASP A   1      17.590  54.326  11.594  0.00  0.00    -0.246 OA
ATOM     22  OD1 ASP A   1      16.276  52.851  10.394  0.00  0.00    -0.246 OA
ENDBRANCH  19  20
ENDBRANCH  16  19
ENDBRANCH  12  16
ENDBRANCH  11  14
BRANCH  11  23
ATOM     23  CB  GLU A   2      12.037  51.980   6.937  0.00  0.00    +0.041 C 
BRANCH  23  24
ATOM     24  CG  GLU A   2      11.676  53.305   6.248  0.00  0.00    +0.116 C 
BRANCH  24  25
ATOM     25  CD  GLU A   2      10.291  53.252   5.619  0.00  0.00    +0.365 C 
ATOM     26  OE2 GLU A   2       9.470  52.470   6.127  0.00  0.00    -0.246 OA
ATOM     27  OE1 GLU A   2      10.034  53.955   4.622  0.00  0.00    -0.246 OA
ENDBRANCH  24  25
ENDBRANCH  23  24
ENDBRANCH  11  23
ENDBRANCH   7  11
ENDBRANCH   5   8
ENDBRANCH   1   5
BRANCH   2  28
ATOM     28  CA  GLN A   4      10.733  50.239  12.801  0.00  0.00    +0.149 C 
BRANCH  28  29
ATOM     29  C   GLN A   4       9.557  50.475  11.931  0.00  0.00    +0.241 C 
ATOM     30  O   GLN A   4       8.506  49.874  12.134  0.00  0.00    -0.273 OA
ATOM     31  N   THR A   5       9.645  51.477  11.074  0.00  0.00    -0.295 N 
ATOM     32  H   THR A   5      10.520  52.030  10.971  0.00  0.00    +0.150 HD
BRANCH  31  33
ATOM     33  CA  THR A   5       8.448  51.774  10.273  0.00  0.00    +0.176 C 
BRANCH  33  34
ATOM     34  C   THR A   5       8.312  50.856   9.062  0.00  0.00    +0.243 C 
ATOM     35  N   GLY A   6       9.356  50.143   8.719  0.00  0.00    -0.296 N 
ATOM     36  H   GLY A   6      10.227  50.139   9.287  0.00  0.00    +0.150 HD
ATOM     37  O   THR A   5       7.253  50.766   8.467  0.00  0.00    -0.273 OA
BRANCH  35  38
ATOM     38  CA  GLY A   6       9.231  49.355   7.499  0.00  0.00    +0.163 C 
BRANCH  38  39
ATOM     39  C   GLY A   6       8.424  48.107   7.657  0.00  0.00    +0.229 C 
ATOM     40  O   GLY A   6       8.049  47.736   8.722  0.00  0.00    -0.286 OA
ENDBRANCH  38  39
ENDBRANCH  35  38
ENDBRANCH  33  34
BRANCH  33  41
ATOM     41  CB  THR A   5       8.442  53.187   9.781  0.00  0.00    +0.137 C 
ATOM     42  CG2 THR A   5       8.573  54.105  10.903  0.00  0.00    +0.034 C 
BRANCH  41  43
ATOM     43  OG1 THR A   5       9.551  53.396   8.901  0.00  0.00    -0.382 OA
ATOM     44  HG1 THR A   5       9.480  52.779   8.130  0.00  0.00    +0.210 HD
ENDBRANCH  41  43
ENDBRANCH  33  41
ENDBRANCH  31  33
ENDBRANCH  28  29
BRANCH  28  45
ATOM     45  CB  GLN A   4      10.616  51.177  14.068  0.00  0.00    +0.039 C 
BRANCH  45  46
ATOM     46  CG  GLN A   4      11.704  50.875  15.184  0.00  0.00    +0.087 C 
BRANCH  46  47
ATOM     47  CD  GLN A   4      11.374  51.528  16.537  0.00  0.00    +0.219 C 
ATOM     48  NE2 GLN A   4      12.401  51.956  17.254  0.00  0.00    -0.329 N 
ATOM     49 HE21 GLN A   4      12.239  52.399  18.181  0.00  0.00    +0.145 HD
ATOM     50 HE22 GLN A   4      13.370  51.849  16.890  0.00  0.00    +0.145 HD
ATOM     51  OE1 GLN A   4      10.179  51.635  16.935  0.00  0.00    -0.275 OA
ENDBRANCH  46  47
ENDBRANCH  45  46
ENDBRANCH  28  45
ENDBRANCH   2  28
TORSDOF 22
REMARK  Name = ../refined-set-2016/1m0q/1m0q_pocket.pdb
REMARK  226 active torsions:
REMARK  status: ('A' for Active; 'I' for Inactive)
REMARK    1  A    between atoms: _1  and  _3
REMARK    2  A    between atoms: _3  and  _4
REMARK    3  A    between atoms: _3  and  _6
REMARK    4  A    between atoms: _6  and  _7
REMARK    5  A    between atoms: _10  and  _12
REMARK    6  A    between atoms: _12  and  _13
REMARK    7  A    between atoms: _15  and  _17
REMARK    8  A    between atoms: _17  and  _18
REMARK    9  A    between atoms: _17  and  _20
REMARK   10  A    between atoms: _20  and  _21
REMARK   11  A    between atoms: _21  and  _22
REMARK   12  A    between atoms: _27  and  _29
REMARK   13  A    between atoms: _29  and  _30
REMARK   14  A    between atoms: _29  and  _32
REMARK   15  A    between atoms: _32  and  _33
REMARK   16  A    between atoms: _33  and  _34
REMARK   17  A    between atoms: _36  and  _38
REMARK   18  A    between atoms: _38  and  _39
REMARK   19  A    between atoms: _38  and  _41
REMARK   20  A    between atoms: _41  and  _42
REMARK   21  A    between atoms: _44  and  _46
REMARK   22  A    between atoms: _46  and  _47
REMARK   23  A    between atoms: _46  and  _49
REMARK   24  A    between atoms: _49  and  _50
REMARK   25  A    between atoms: _52  and  _54
REMARK   26  A    between atoms: _54  and  _55
REMARK   27  A    between atoms: _54  and  _57
REMARK   28  A    between atoms: _57  and  _58
REMARK   29  A    between atoms: _61  and  _63
REMARK   30  A    between atoms: _63  and  _64
REMARK   31  A    between atoms: _66  and  _68
REMARK   32  A    between atoms: _68  and  _69
REMARK   33  A    between atoms: _72  and  _74
REMARK   34  A    between atoms: _74  and  _75
REMARK   35  A    between atoms: _74  and  _77
REMARK   36  A    between atoms: _77  and  _78
REMARK   37  A    between atoms: _78  and  _79
REMARK   38  A    between atoms: _82  and  _84
REMARK   39  A    between atoms: _84  and  _85
REMARK   40  A    between atoms: _84  and  _87
REMARK   41  A    between atoms: _87  and  _88
REMARK   42  A    between atoms: _90  and  _92
REMARK   43  A    between atoms: _92  and  _93
REMARK   44  A    between atoms: _92  and  _95
REMARK   45  A    between atoms: _95  and  _96
REMARK   46  A    between atoms: _101  and  _103
REMARK   47  A    between atoms: _103  and  _104
REMARK   48  A    between atoms: _103  and  _106
REMARK   49  A    between atoms: _106  and  _107
REMARK   50  A    between atoms: _107  and  _108
REMARK   51  A    between atoms: _111  and  _113
REMARK   52  A    between atoms: _113  and  _114
REMARK   53  A    between atoms: _113  and  _116
REMARK   54  A    between atoms: _116  and  _117
REMARK   55  A    between atoms: _119  and  _121
REMARK   56  A    between atoms: _121  and  _122
REMARK   57  A    between atoms: _121  and  _124
REMARK   58  A    between atoms: _124  and  _125
REMARK   59  A    between atoms: _135  and  _137
REMARK   60  A    between atoms: _137  and  _138
REMARK   61  A    between atoms: _137  and  _140
REMARK   62  A    between atoms: _140  and  _141
REMARK   63  A    between atoms: _146  and  _148
REMARK   64  A    between atoms: _148  and  _149
REMARK   65  A    between atoms: _151  and  _153
REMARK   66  A    between atoms: _153  and  _154
REMARK   67  A    between atoms: _153  and  _156
REMARK   68  A    between atoms: _156  and  _157
REMARK   69  A    between atoms: _157  and  _158
REMARK   70  A    between atoms: _160  and  _162
REMARK   71  A    between atoms: _162  and  _163
REMARK   72  A    between atoms: _162  and  _165
REMARK   73  A    between atoms: _165  and  _166
REMARK   74  A    between atoms: _169  and  _171
REMARK   75  A    between atoms: _171  and  _172
REMARK   76  A    between atoms: _175  and  _177
REMARK   77  A    between atoms: _177  and  _178
REMARK   78  A    between atoms: _177  and  _180
REMARK   79  A    between atoms: _180  and  _181
REMARK   80  A    between atoms: _184  and  _186
REMARK   81  A    between atoms: _186  and  _187
REMARK   82  A    between atoms: _186  and  _189
REMARK   83  A    between atoms: _189  and  _190
REMARK   84  A    between atoms: _193  and  _195
REMARK   85  A    between atoms: _195  and  _196
REMARK   86  A    between atoms: _199  and  _201
REMARK   87  A    between atoms: _201  and  _202
REMARK   88  A    between atoms: _201  and  _204
REMARK   89  A    between atoms: _204  and  _205
REMARK   90  A    between atoms: _205  and  _206
REMARK   91  A    between atoms: _210  and  _211
REMARK   92  A    between atoms: _216  and  _218
REMARK   93  A    between atoms: _218  and  _219
REMARK   94  A    between atoms: _218  and  _221
REMARK   95  A    between atoms: _221  and  _222
REMARK   96  A    between atoms: _225  and  _227
REMARK   97  A    between atoms: _227  and  _228
REMARK   98  A    between atoms: _227  and  _230
REMARK   99  A    between atoms: _230  and  _231
REMARK  100  A    between atoms: _234  and  _236
REMARK  101  A    between atoms: _236  and  _237
REMARK  102  A    between atoms: _236  and  _239
REMARK  103  A    between atoms: _239  and  _240
REMARK  104  A    between atoms: _242  and  _244
REMARK  105  A    between atoms: _244  and  _245
REMARK  106  A    between atoms: _244  and  _247
REMARK  107  A    between atoms: _247  and  _248
REMARK  108  A    between atoms: _250  and  _252
REMARK  109  A    between atoms: _252  and  _253
REMARK  110  A    between atoms: _255  and  _257
REMARK  111  A    between atoms: _257  and  _258
REMARK  112  A    between atoms: _260  and  _262
REMARK  113  A    between atoms: _262  and  _263
REMARK  114  A    between atoms: _262  and  _265
REMARK  115  A    between atoms: _265  and  _266
REMARK  116  A    between atoms: _269  and  _271
REMARK  117  A    between atoms: _271  and  _272
REMARK  118  A    between atoms: _271  and  _274
REMARK  119  A    between atoms: _274  and  _275
REMARK  120  A    between atoms: _275  and  _276
REMARK  121  A    between atoms: _279  and  _281
REMARK  122  A    between atoms: _281  and  _282
REMARK  123  A    between atoms: _285  and  _287
REMARK  124  A    between atoms: _287  and  _288
REMARK  125  A    between atoms: _287  and  _290
REMARK  126  A    between atoms: _290  and  _291
REMARK  127  A    between atoms: _291  and  _292
REMARK  128  A    between atoms: _297  and  _299
REMARK  129  A    between atoms: _299  and  _300
REMARK  130  A    between atoms: _299  and  _302
REMARK  131  A    between atoms: _302  and  _303
REMARK  132  A    between atoms: _306  and  _308
REMARK  133  A    between atoms: _308  and  _309
REMARK  134  A    between atoms: _311  and  _313
REMARK  135  A    between atoms: _313  and  _314
REMARK  136  A    between atoms: _313  and  _316
REMARK  137  A    between atoms: _316  and  _317
REMARK  138  A    between atoms: _320  and  _322
REMARK  139  A    between atoms: _322  and  _323
REMARK  140  A    between atoms: _322  and  _325
REMARK  141  A    between atoms: _325  and  _326
REMARK  142  A    between atoms: _329  and  _331
REMARK  143  A    between atoms: _331  and  _332
REMARK  144  A    between atoms: _331  and  _334
REMARK  145  A    between atoms: _334  and  _335
REMARK  146  A    between atoms: _337  and  _339
REMARK  147  A    between atoms: _339  and  _340
REMARK  148  A    between atoms: _339  and  _342
REMARK  149  A    between atoms: _342  and  _343
REMARK  150  A    between atoms: _343  and  _344
REMARK  151  A    between atoms: _344  and  _345
REMARK  152  A    between atoms: _345  and  _346
REMARK  153  A    between atoms: _351  and  _352
REMARK  154  A    between atoms: _357  and  _359
REMARK  155  A    between atoms: _359  and  _360
REMARK  156  A    between atoms: _359  and  _362
REMARK  157  A    between atoms: _362  and  _363
REMARK  158  A    between atoms: _366  and  _368
REMARK  159  A    between atoms: _368  and  _369
REMARK  160  A    between atoms: _372  and  _374
REMARK  161  A    between atoms: _374  and  _375
REMARK  162  A    between atoms: _374  and  _377
REMARK  163  A    between atoms: _377  and  _378
REMARK  164  A    between atoms: _383  and  _385
REMARK  165  A    between atoms: _385  and  _386
REMARK  166  A    between atoms: _385  and  _388
REMARK  167  A    between atoms: _391  and  _393
REMARK  168  A    between atoms: _393  and  _394
REMARK  169  A    between atoms: _393  and  _396
REMARK  170  A    between atoms: _396  and  _397
REMARK  171  A    between atoms: _397  and  _398
REMARK  172  A    between atoms: _398  and  _399
REMARK  173  A    between atoms: _408  and  _410
REMARK  174  A    between atoms: _410  and  _411
REMARK  175  A    between atoms: _410  and  _413
REMARK  176  A    between atoms: _413  and  _414
REMARK  177  A    between atoms: _419  and  _421
REMARK  178  A    between atoms: _421  and  _422
REMARK  179  A    between atoms: _421  and  _424
REMARK  180  A    between atoms: _424  and  _425
REMARK  181  A    between atoms: _431  and  _433
REMARK  182  A    between atoms: _433  and  _434
REMARK  183  A    between atoms: _433  and  _436
REMARK  184  A    between atoms: _436  and  _437
REMARK  185  A    between atoms: _439  and  _441
REMARK  186  A    between atoms: _441  and  _442
REMARK  187  A    between atoms: _441  and  _444
REMARK  188  A    between atoms: _444  and  _445
REMARK  189  A    between atoms: _445  and  _446
REMARK  190  A    between atoms: _449  and  _451
REMARK  191  A    between atoms: _451  and  _452
REMARK  192  A    between atoms: _451  and  _454
REMARK  193  A    between atoms: _454  and  _455
REMARK  194  A    between atoms: _458  and  _460
REMARK  195  A    between atoms: _460  and  _461
REMARK  196  A    between atoms: _460  and  _463
REMARK  197  A    between atoms: _463  and  _464
REMARK  198  A    between atoms: _466  and  _468
REMARK  199  A    between atoms: _468  and  _469
REMARK  200  A    between atoms: _468  and  _471
REMARK  201  A    between atoms: _471  and  _472
REMARK  202  A    between atoms: _472  and  _473
REMARK  203  A    between atoms: _476  and  _478
REMARK  204  A    between atoms: _478  and  _479
REMARK  205  A    between atoms: _478  and  _481
REMARK  206  A    between atoms: _481  and  _482
REMARK  207  A    between atoms: _488  and  _490
REMARK  208  A    between atoms: _490  and  _491
REMARK  209  A    between atoms: _490  and  _493
REMARK  210  A    between atoms: _493  and  _494
REMARK  211  A    between atoms: _499  and  _500
REMARK  212  A    between atoms: _502  and  _504
REMARK  213  A    between atoms: _504  and  _505
REMARK  214  A    between atoms: _504  and  _507
REMARK  215  A    between atoms: _507  and  _508
REMARK  216  A    between atoms: _511  and  _513
REMARK  217  A    between atoms: _513  and  _514
REMARK  218  A    between atoms: _513  and  _516
REMARK  219  A    between atoms: _516  and  _517
REMARK  220  A    between atoms: _520  and  _522
REMARK  221  A    between atoms: _522  and  _523
REMARK  222  A    between atoms: _522  and  _525
REMARK  223  A    between atoms: _525  and  _526
REMARK  224  A    between atoms: _531  and  _533
REMARK  225  A    between atoms: _533  and  _534
REMARK  226  A    between atoms: _533  and  _536
REMARK                            x       y       z     vdW  Elec       q    Type
REMARK                         _______ _______ _______ _____ _____    ______ ____
ROOT
ATOM      1  C   LEU A   2      16.356  46.958   8.234  0.00  0.00    +0.241 C 
ATOM      2  N   SER A   3      15.521  46.534   9.223  0.00  0.00    -0.295 N 
ATOM      3  H   SER A   3      14.536  46.864   9.280  0.00  0.00    +0.150 HD
ATOM      4  O   LEU A   2      17.533  46.519   8.073  0.00  0.00    -0.273 OA
ENDROOT
BRANCH   2   5
ATOM      5  CA  SER A   3      16.077  45.582  10.214  0.00  0.00    +0.178 C 
BRANCH   5   6
ATOM      6  C   SER A   3      15.112  44.941  11.118  0.00  0.00    +0.243 C 
ATOM      7  N   LYS A   4      14.698  45.700  12.137  0.00  0.00    -0.298 N 
ATOM      8  H   LYS A   4      14.998  46.696  12.161  0.00  0.00    +0.150 HD
ATOM      9  O   SER A   3      14.836  43.752  10.990  0.00  0.00    -0.273 OA
BRANCH   7  10
ATOM     10  CA  LYS A   4      13.813  45.189  13.264  0.00  0.00    +0.137 C 
BRANCH  10  11
ATOM     11  C   LYS A   4      12.646  44.331  12.814  0.00  0.00    +0.227 C 
ATOM     12  O   LYS A   4      12.543  43.130  13.115  0.00  0.00    -0.286 OA
ENDBRANCH  10  11
BRANCH  10  13
ATOM     13  CB  LYS A   4      13.308  46.358  14.143  0.00  0.00    +0.028 C 
BRANCH  13  14
ATOM     14  CG  LYS A   4      14.455  47.176  14.922  0.00  0.00    -0.000 C 
BRANCH  14  15
ATOM     15  CD  LYS A   4      13.968  48.614  15.299  0.00  0.00    -0.024 C 
BRANCH  15  16
ATOM     16  CE  LYS A   4      13.160  48.559  16.559  0.00  0.00    -0.086 C 
BRANCH  16  17
ATOM     17  NZ  LYS A   4      14.107  48.318  17.673  0.00  0.00    +0.380 N 
ATOM     18  HZ1 LYS A   4      13.582  48.273  18.569  0.00  0.00    -0.089 HD
ATOM     19  HZ2 LYS A   4      14.798  49.094  17.713  0.00  0.00    -0.089 HD
ATOM     20  HZ3 LYS A   4      14.604  47.418  17.516  0.00  0.00    -0.089 HD
ENDBRANCH  16  17
ENDBRANCH  15  16
ENDBRANCH  14  15
ENDBRANCH  13  14
ENDBRANCH  10  13
ENDBRANCH   7  10
ENDBRANCH   5   6
BRANCH   5  21
ATOM     21  CB  SER A   3      17.174  46.250  11.047  0.00  0.00    +0.166 C 
BRANCH  21  22
ATOM     22  OG  SER A   3      16.776  47.610  11.472  0.00  0.00    -0.380 OA
ATOM     23  H   SER A   3      16.605  48.168  10.672  0.00  0.00    +0.211 HD
ENDBRANCH  21  22
ENDBRANCH   5  21
ENDBRANCH   2   5
BRANCH   1  24
ATOM     24  CA  LEU A   2      15.734  47.871   7.200  0.00  0.00    +0.149 C 
BRANCH  24  27
ATOM     25  C   THR A   1      16.476  49.963   6.368  0.00  0.00    +0.241 C 
ATOM     26  O   THR A   1      15.477  50.546   6.716  0.00  0.00    -0.274 OA
ATOM     27  N   LEU A   2      16.695  48.694   6.583  0.00  0.00    -0.297 N 
ATOM     28  H   LEU A   2      17.603  48.280   6.291  0.00  0.00    +0.150 HD
BRANCH  25  29
ATOM     29  CA  THR A   1      17.572  50.692   5.606  0.00  0.00    +0.172 C 
BRANCH  29  30
ATOM     30  CB  THR A   1      18.640  51.284   6.616  0.00  0.00    +0.135 C 
ATOM     31  CG2 THR A   1      19.603  52.200   5.897  0.00  0.00    +0.034 C 
BRANCH  30  32
ATOM     32  OG1 THR A   1      17.989  52.048   7.668  0.00  0.00    -0.383 OA
ATOM     33  HG1 THR A   1      18.674  52.407   8.286  0.00  0.00    +0.210 HD
ENDBRANCH  30  32
ENDBRANCH  29  30
BRANCH  29  34
ATOM     34  N   THR A   1      17.030  51.697   4.662  0.00  0.00    -0.236 NA
ATOM     35  H   THR A   1      16.512  52.521   5.028  0.00  0.00    +0.142 HD
ENDBRANCH  29  34
ENDBRANCH  25  29
ENDBRANCH  24  27
BRANCH  24  36
ATOM     36  CB  LEU A   2      15.077  46.965   6.137  0.00  0.00    +0.029 C 
BRANCH  36  37
ATOM     37  CG  LEU A   2      14.271  47.739   5.012  0.00  0.00    +0.002 C 
ATOM     38  CD2 LEU A   2      12.959  48.306   5.611  0.00  0.00    +0.000 C 
ATOM     39  CD1 LEU A   2      13.900  46.785   3.874  0.00  0.00    +0.000 C 
ENDBRANCH  36  37
ENDBRANCH  24  36
ENDBRANCH   1  24
TORSDOF 19
REMARK  Name = ../refined-set-2016/1m0q/1m0q_pocket.pdb
REMARK  226 active torsions:
REMARK  status: ('A' for Active; 'I' for Inactive)
REMARK    1  A    between atoms: _1  and  _3
REMARK    2  A    between atoms: _3  and  _4
REMARK    3  A    between atoms: _3  and  _6
REMARK    4  A    between atoms: _6  and  _7
REMARK    5  A    between atoms: _10  and  _12
REMARK    6  A    between atoms: _12  and  _13
REMARK    7  A    between atoms: _15  and  _17
REMARK    8  A    between atoms: _17  and  _18
REMARK    9  A    between atoms: _17  and  _20
REMARK   10  A    between atoms: _20  and  _21
REMARK   11  A    between atoms: _21  and  _22
REMARK   12  A    between atoms: _27  and  _29
REMARK   13  A    between atoms: _29  and  _30
REMARK   14  A    between atoms: _29  and  _32
REMARK   15  A    between atoms: _32  and  _33
REMARK   16  A    between atoms: _33  and  _34
REMARK   17  A    between atoms: _36  and  _38
REMARK   18  A    between atoms: _38  and  _39
REMARK   19  A    between atoms: _38  and  _41
REMARK   20  A    between atoms: _41  and  _42
REMARK   21  A    between atoms: _44  and  _46
REMARK   22  A    between atoms: _46  and  _47
REMARK   23  A    between atoms: _46  and  _49
REMARK   24  A    between atoms: _49  and  _50
REMARK   25  A    between atoms: _52  and  _54
REMARK   26  A    between atoms: _54  and  _55
REMARK   27  A    between atoms: _54  and  _57
REMARK   28  A    between atoms: _57  and  _58
REMARK   29  A    between atoms: _61  and  _63
REMARK   30  A    between atoms: _63  and  _64
REMARK   31  A    between atoms: _66  and  _68
REMARK   32  A    between atoms: _68  and  _69
REMARK   33  A    between atoms: _72  and  _74
REMARK   34  A    between atoms: _74  and  _75
REMARK   35  A    between atoms: _74  and  _77
REMARK   36  A    between atoms: _77  and  _78
REMARK   37  A    between atoms: _78  and  _79
REMARK   38  A    between atoms: _82  and  _84
REMARK   39  A    between atoms: _84  and  _85
REMARK   40  A    between atoms: _84  and  _87
REMARK   41  A    between atoms: _87  and  _88
REMARK   42  A    between atoms: _90  and  _92
REMARK   43  A    between atoms: _92  and  _93
REMARK   44  A    between atoms: _92  and  _95
REMARK   45  A    between atoms: _95  and  _96
REMARK   46  A    between atoms: _101  and  _103
REMARK   47  A    between atoms: _103  and  _104
REMARK   48  A    between atoms: _103  and  _106
REMARK   49  A    between atoms: _106  and  _107
REMARK   50  A    between atoms: _107  and  _108
REMARK   51  A    between atoms: _111  and  _113
REMARK   52  A    between atoms: _113  and  _114
REMARK   53  A    between atoms: _113  and  _116
REMARK   54  A    between atoms: _116  and  _117
REMARK   55  A    between atoms: _119  and  _121
REMARK   56  A    between atoms: _121  and  _122
REMARK   57  A    between atoms: _121  and  _124
REMARK   58  A    between atoms: _124  and  _125
REMARK   59  A    between atoms: _135  and  _137
REMARK   60  A    between atoms: _137  and  _138
REMARK   61  A    between atoms: _137  and  _140
REMARK   62  A    between atoms: _140  and  _141
REMARK   63  A    between atoms: _146  and  _148
REMARK   64  A    between atoms: _148  and  _149
REMARK   65  A    between atoms: _151  and  _153
REMARK   66  A    between atoms: _153  and  _154
REMARK   67  A    between atoms: _153  and  _156
REMARK   68  A    between atoms: _156  and  _157
REMARK   69  A    between atoms: _157  and  _158
REMARK   70  A    between atoms: _160  and  _162
REMARK   71  A    between atoms: _162  and  _163
REMARK   72  A    between atoms: _162  and  _165
REMARK   73  A    between atoms: _165  and  _166
REMARK   74  A    between atoms: _169  and  _171
REMARK   75  A    between atoms: _171  and  _172
REMARK   76  A    between atoms: _175  and  _177
REMARK   77  A    between atoms: _177  and  _178
REMARK   78  A    between atoms: _177  and  _180
REMARK   79  A    between atoms: _180  and  _181
REMARK   80  A    between atoms: _184  and  _186
REMARK   81  A    between atoms: _186  and  _187
REMARK   82  A    between atoms: _186  and  _189
REMARK   83  A    between atoms: _189  and  _190
REMARK   84  A    between atoms: _193  and  _195
REMARK   85  A    between atoms: _195  and  _196
REMARK   86  A    between atoms: _199  and  _201
REMARK   87  A    between atoms: _201  and  _202
REMARK   88  A    between atoms: _201  and  _204
REMARK   89  A    between atoms: _204  and  _205
REMARK   90  A    between atoms: _205  and  _206
REMARK   91  A    between atoms: _210  and  _211
REMARK   92  A    between atoms: _216  and  _218
REMARK   93  A    between atoms: _218  and  _219
REMARK   94  A    between atoms: _218  and  _221
REMARK   95  A    between atoms: _221  and  _222
REMARK   96  A    between atoms: _225  and  _227
REMARK   97  A    between atoms: _227  and  _228
REMARK   98  A    between atoms: _227  and  _230
REMARK   99  A    between atoms: _230  and  _231
REMARK  100  A    between atoms: _234  and  _236
REMARK  101  A    between atoms: _236  and  _237
REMARK  102  A    between atoms: _236  and  _239
REMARK  103  A    between atoms: _239  and  _240
REMARK  104  A    between atoms: _242  and  _244
REMARK  105  A    between atoms: _244  and  _245
REMARK  106  A    between atoms: _244  and  _247
REMARK  107  A    between atoms: _247  and  _248
REMARK  108  A    between atoms: _250  and  _252
REMARK  109  A    between atoms: _252  and  _253
REMARK  110  A    between atoms: _255  and  _257
REMARK  111  A    between atoms: _257  and  _258
REMARK  112  A    between atoms: _260  and  _262
REMARK  113  A    between atoms: _262  and  _263
REMARK  114  A    between atoms: _262  and  _265
REMARK  115  A    between atoms: _265  and  _266
REMARK  116  A    between atoms: _269  and  _271
REMARK  117  A    between atoms: _271  and  _272
REMARK  118  A    between atoms: _271  and  _274
REMARK  119  A    between atoms: _274  and  _275
REMARK  120  A    between atoms: _275  and  _276
REMARK  121  A    between atoms: _279  and  _281
REMARK  122  A    between atoms: _281  and  _282
REMARK  123  A    between atoms: _285  and  _287
REMARK  124  A    between atoms: _287  and  _288
REMARK  125  A    between atoms: _287  and  _290
REMARK  126  A    between atoms: _290  and  _291
REMARK  127  A    between atoms: _291  and  _292
REMARK  128  A    between atoms: _297  and  _299
REMARK  129  A    between atoms: _299  and  _300
REMARK  130  A    between atoms: _299  and  _302
REMARK  131  A    between atoms: _302  and  _303
REMARK  132  A    between atoms: _306  and  _308
REMARK  133  A    between atoms: _308  and  _309
REMARK  134  A    between atoms: _311  and  _313
REMARK  135  A    between atoms: _313  and  _314
REMARK  136  A    between atoms: _313  and  _316
REMARK  137  A    between atoms: _316  and  _317
REMARK  138  A    between atoms: _320  and  _322
REMARK  139  A    between atoms: _322  and  _323
REMARK  140  A    between atoms: _322  and  _325
REMARK  141  A    between atoms: _325  and  _326
REMARK  142  A    between atoms: _329  and  _331
REMARK  143  A    between atoms: _331  and  _332
REMARK  144  A    between atoms: _331  and  _334
REMARK  145  A    between atoms: _334  and  _335
REMARK  146  A    between atoms: _337  and  _339
REMARK  147  A    between atoms: _339  and  _340
REMARK  148  A    between atoms: _339  and  _342
REMARK  149  A    between atoms: _342  and  _343
REMARK  150  A    between atoms: _343  and  _344
REMARK  151  A    between atoms: _344  and  _345
REMARK  152  A    between atoms: _345  and  _346
REMARK  153  A    between atoms: _351  and  _352
REMARK  154  A    between atoms: _357  and  _359
REMARK  155  A    between atoms: _359  and  _360
REMARK  156  A    between atoms: _359  and  _362
REMARK  157  A    between atoms: _362  and  _363
REMARK  158  A    between atoms: _366  and  _368
REMARK  159  A    between atoms: _368  and  _369
REMARK  160  A    between atoms: _372  and  _374
REMARK  161  A    between atoms: _374  and  _375
REMARK  162  A    between atoms: _374  and  _377
REMARK  163  A    between atoms: _377  and  _378
REMARK  164  A    between atoms: _383  and  _385
REMARK  165  A    between atoms: _385  and  _386
REMARK  166  A    between atoms: _385  and  _388
REMARK  167  A    between atoms: _391  and  _393
REMARK  168  A    between atoms: _393  and  _394
REMARK  169  A    between atoms: _393  and  _396
REMARK  170  A    between atoms: _396  and  _397
REMARK  171  A    between atoms: _397  and  _398
REMARK  172  A    between atoms: _398  and  _399
REMARK  173  A    between atoms: _408  and  _410
REMARK  174  A    between atoms: _410  and  _411
REMARK  175  A    between atoms: _410  and  _413
REMARK  176  A    between atoms: _413  and  _414
REMARK  177  A    between atoms: _419  and  _421
REMARK  178  A    between atoms: _421  and  _422
REMARK  179  A    between atoms: _421  and  _424
REMARK  180  A    between atoms: _424  and  _425
REMARK  181  A    between atoms: _431  and  _433
REMARK  182  A    between atoms: _433  and  _434
REMARK  183  A    between atoms: _433  and  _436
REMARK  184  A    between atoms: _436  and  _437
REMARK  185  A    between atoms: _439  and  _441
REMARK  186  A    between atoms: _441  and  _442
REMARK  187  A    between atoms: _441  and  _444
REMARK  188  A    between atoms: _444  and  _445
REMARK  189  A    between atoms: _445  and  _446
REMARK  190  A    between atoms: _449  and  _451
REMARK  191  A    between atoms: _451  and  _452
REMARK  192  A    between atoms: _451  and  _454
REMARK  193  A    between atoms: _454  and  _455
REMARK  194  A    between atoms: _458  and  _460
REMARK  195  A    between atoms: _460  and  _461
REMARK  196  A    between atoms: _460  and  _463
REMARK  197  A    between atoms: _463  and  _464
REMARK  198  A    between atoms: _466  and  _468
REMARK  199  A    between atoms: _468  and  _469
REMARK  200  A    between atoms: _468  and  _471
REMARK  201  A    between atoms: _471  and  _472
REMARK  202  A    between atoms: _472  and  _473
REMARK  203  A    between atoms: _476  and  _478
REMARK  204  A    between atoms: _478  and  _479
REMARK  205  A    between atoms: _478  and  _481
REMARK  206  A    between atoms: _481  and  _482
REMARK  207  A    between atoms: _488  and  _490
REMARK  208  A    between atoms: _490  and  _491
REMARK  209  A    between atoms: _490  and  _493
REMARK  210  A    between atoms: _493  and  _494
REMARK  211  A    between atoms: _499  and  _500
REMARK  212  A    between atoms: _502  and  _504
REMARK  213  A    between atoms: _504  and  _505
REMARK  214  A    between atoms: _504  and  _507
REMARK  215  A    between atoms: _507  and  _508
REMARK  216  A    between atoms: _511  and  _513
REMARK  217  A    between atoms: _513  and  _514
REMARK  218  A    between atoms: _513  and  _516
REMARK  219  A    between atoms: _516  and  _517
REMARK  220  A    between atoms: _520  and  _522
REMARK  221  A    between atoms: _522  and  _523
REMARK  222  A    between atoms: _522  and  _525
REMARK  223  A    between atoms: _525  and  _526
REMARK  224  A    between atoms: _531  and  _533
REMARK  225  A    between atoms: _533  and  _534
REMARK  226  A    between atoms: _533  and  _536
REMARK                            x       y       z     vdW  Elec       q    Type
REMARK                         _______ _______ _______ _____ _____    ______ ____
ROOT
ATOM      1  CA  LEU A   2      18.650  40.326   9.952  0.00  0.00    +0.149 C 
ENDROOT
BRANCH   1   4
ATOM      2  C   PRO A   1      19.265  39.436  12.151  0.00  0.00    +0.239 C 
ATOM      3  O   PRO A   1      20.154  38.715  11.666  0.00  0.00    -0.274 OA
ATOM      4  N   LEU A   2      18.467  40.188  11.408  0.00  0.00    -0.297 N 
ATOM      5  H   LEU A   2      17.685  40.698  11.867  0.00  0.00    +0.150 HD
BRANCH   2  10
ATOM      6  N   PRO A   1      18.046  38.445  14.057  0.00  0.00    -0.210 NA
ATOM      7  CD  PRO A   1      18.650  37.515  15.007  0.00  0.00    +0.089 C 
ATOM      8  CG  PRO A   1      20.100  37.770  14.852  0.00  0.00    +0.021 C 
ATOM      9  CB  PRO A   1      20.202  39.218  14.564  0.00  0.00    +0.028 C 
ATOM     10  CA  PRO A   1      18.970  39.501  13.687  0.00  0.00    +0.149 C 
ENDBRANCH   2  10
ENDBRANCH   1   4
BRANCH   1  11
ATOM     11  C   LEU A   2      18.384  41.777   9.669  0.00  0.00    +0.241 C 
ATOM     12  O   LEU A   2      17.432  42.364  10.251  0.00  0.00    -0.273 OA
ATOM     13  N   ALA A   3      19.196  42.394   8.826  0.00  0.00    -0.298 N 
ATOM     14  H   ALA A   3      19.986  41.881   8.384  0.00  0.00    +0.150 HD
BRANCH  13  15
ATOM     15  CA  ALA A   3      18.965  43.823   8.521  0.00  0.00    +0.137 C 
ATOM     16  CB  ALA A   3      19.941  44.693   9.318  0.00  0.00    +0.030 C 
BRANCH  15  17
ATOM     17  C   ALA A   3      19.266  43.963   7.003  0.00  0.00    +0.227 C 
ATOM     18  O   ALA A   3      19.707  43.009   6.372  0.00  0.00    -0.286 OA
ENDBRANCH  15  17
ENDBRANCH  13  15
ENDBRANCH   1  11
BRANCH   1  19
ATOM     19  CB  LEU A   2      17.591  39.512   9.250  0.00  0.00    +0.029 C 
BRANCH  19  20
ATOM     20  CG  LEU A   2      17.593  39.803   7.716  0.00  0.00    +0.002 C 
ATOM     21  CD2 LEU A   2      16.370  39.124   7.069  0.00  0.00    +0.000 C 
ATOM     22  CD1 LEU A   2      18.896  39.462   6.947  0.00  0.00    +0.000 C 
ENDBRANCH  19  20
ENDBRANCH   1  19
TORSDOF 7
REMARK  Name = ../refined-set-2016/1m0q/1m0q_pocket.pdb
REMARK  226 active torsions:
REMARK  status: ('A' for Active; 'I' for Inactive)
REMARK    1  A    between atoms: _1  and  _3
REMARK    2  A    between atoms: _3  and  _4
REMARK    3  A    between atoms: _3  and  _6
REMARK    4  A    between atoms: _6  and  _7
REMARK    5  A    between atoms: _10  and  _12
REMARK    6  A    between atoms: _12  and  _13
REMARK    7  A    between atoms: _15  and  _17
REMARK    8  A    between atoms: _17  and  _18
REMARK    9  A    between atoms: _17  and  _20
REMARK   10  A    between atoms: _20  and  _21
REMARK   11  A    between atoms: _21  and  _22
REMARK   12  A    between atoms: _27  and  _29
REMARK   13  A    between atoms: _29  and  _30
REMARK   14  A    between atoms: _29  and  _32
REMARK   15  A    between atoms: _32  and  _33
REMARK   16  A    between atoms: _33  and  _34
REMARK   17  A    between atoms: _36  and  _38
REMARK   18  A    between atoms: _38  and  _39
REMARK   19  A    between atoms: _38  and  _41
REMARK   20  A    between atoms: _41  and  _42
REMARK   21  A    between atoms: _44  and  _46
REMARK   22  A    between atoms: _46  and  _47
REMARK   23  A    between atoms: _46  and  _49
REMARK   24  A    between atoms: _49  and  _50
REMARK   25  A    between atoms: _52  and  _54
REMARK   26  A    between atoms: _54  and  _55
REMARK   27  A    between atoms: _54  and  _57
REMARK   28  A    between atoms: _57  and  _58
REMARK   29  A    between atoms: _61  and  _63
REMARK   30  A    between atoms: _63  and  _64
REMARK   31  A    between atoms: _66  and  _68
REMARK   32  A    between atoms: _68  and  _69
REMARK   33  A    between atoms: _72  and  _74
REMARK   34  A    between atoms: _74  and  _75
REMARK   35  A    between atoms: _74  and  _77
REMARK   36  A    between atoms: _77  and  _78
REMARK   37  A    between atoms: _78  and  _79
REMARK   38  A    between atoms: _82  and  _84
REMARK   39  A    between atoms: _84  and  _85
REMARK   40  A    between atoms: _84  and  _87
REMARK   41  A    between atoms: _87  and  _88
REMARK   42  A    between atoms: _90  and  _92
REMARK   43  A    between atoms: _92  and  _93
REMARK   44  A    between atoms: _92  and  _95
REMARK   45  A    between atoms: _95  and  _96
REMARK   46  A    between atoms: _101  and  _103
REMARK   47  A    between atoms: _103  and  _104
REMARK   48  A    between atoms: _103  and  _106
REMARK   49  A    between atoms: _106  and  _107
REMARK   50  A    between atoms: _107  and  _108
REMARK   51  A    between atoms: _111  and  _113
REMARK   52  A    between atoms: _113  and  _114
REMARK   53  A    between atoms: _113  and  _116
REMARK   54  A    between atoms: _116  and  _117
REMARK   55  A    between atoms: _119  and  _121
REMARK   56  A    between atoms: _121  and  _122
REMARK   57  A    between atoms: _121  and  _124
REMARK   58  A    between atoms: _124  and  _125
REMARK   59  A    between atoms: _135  and  _137
REMARK   60  A    between atoms: _137  and  _138
REMARK   61  A    between atoms: _137  and  _140
REMARK   62  A    between atoms: _140  and  _141
REMARK   63  A    between atoms: _146  and  _148
REMARK   64  A    between atoms: _148  and  _149
REMARK   65  A    between atoms: _151  and  _153
REMARK   66  A    between atoms: _153  and  _154
REMARK   67  A    between atoms: _153  and  _156
REMARK   68  A    between atoms: _156  and  _157
REMARK   69  A    between atoms: _157  and  _158
REMARK   70  A    between atoms: _160  and  _162
REMARK   71  A    between atoms: _162  and  _163
REMARK   72  A    between atoms: _162  and  _165
REMARK   73  A    between atoms: _165  and  _166
REMARK   74  A    between atoms: _169  and  _171
REMARK   75  A    between atoms: _171  and  _172
REMARK   76  A    between atoms: _175  and  _177
REMARK   77  A    between atoms: _177  and  _178
REMARK   78  A    between atoms: _177  and  _180
REMARK   79  A    between atoms: _180  and  _181
REMARK   80  A    between atoms: _184  and  _186
REMARK   81  A    between atoms: _186  and  _187
REMARK   82  A    between atoms: _186  and  _189
REMARK   83  A    between atoms: _189  and  _190
REMARK   84  A    between atoms: _193  and  _195
REMARK   85  A    between atoms: _195  and  _196
REMARK   86  A    between atoms: _199  and  _201
REMARK   87  A    between atoms: _201  and  _202
REMARK   88  A    between atoms: _201  and  _204
REMARK   89  A    between atoms: _204  and  _205
REMARK   90  A    between atoms: _205  and  _206
REMARK   91  A    between atoms: _210  and  _211
REMARK   92  A    between atoms: _216  and  _218
REMARK   93  A    between atoms: _218  and  _219
REMARK   94  A    between atoms: _218  and  _221
REMARK   95  A    between atoms: _221  and  _222
REMARK   96  A    between atoms: _225  and  _227
REMARK   97  A    between atoms: _227  and  _228
REMARK   98  A    between atoms: _227  and  _230
REMARK   99  A    between atoms: _230  and  _231
REMARK  100  A    between atoms: _234  and  _236
REMARK  101  A    between atoms: _236  and  _237
REMARK  102  A    between atoms: _236  and  _239
REMARK  103  A    between atoms: _239  and  _240
REMARK  104  A    between atoms: _242  and  _244
REMARK  105  A    between atoms: _244  and  _245
REMARK  106  A    between atoms: _244  and  _247
REMARK  107  A    between atoms: _247  and  _248
REMARK  108  A    between atoms: _250  and  _252
REMARK  109  A    between atoms: _252  and  _253
REMARK  110  A    between atoms: _255  and  _257
REMARK  111  A    between atoms: _257  and  _258
REMARK  112  A    between atoms: _260  and  _262
REMARK  113  A    between atoms: _262  and  _263
REMARK  114  A    between atoms: _262  and  _265
REMARK  115  A    between atoms: _265  and  _266
REMARK  116  A    between atoms: _269  and  _271
REMARK  117  A    between atoms: _271  and  _272
REMARK  118  A    between atoms: _271  and  _274
REMARK  119  A    between atoms: _274  and  _275
REMARK  120  A    between atoms: _275  and  _276
REMARK  121  A    between atoms: _279  and  _281
REMARK  122  A    between atoms: _281  and  _282
REMARK  123  A    between atoms: _285  and  _287
REMARK  124  A    between atoms: _287  and  _288
REMARK  125  A    between atoms: _287  and  _290
REMARK  126  A    between atoms: _290  and  _291
REMARK  127  A    between atoms: _291  and  _292
REMARK  128  A    between atoms: _297  and  _299
REMARK  129  A    between atoms: _299  and  _300
REMARK  130  A    between atoms: _299  and  _302
REMARK  131  A    between atoms: _302  and  _303
REMARK  132  A    between atoms: _306  and  _308
REMARK  133  A    between atoms: _308  and  _309
REMARK  134  A    between atoms: _311  and  _313
REMARK  135  A    between atoms: _313  and  _314
REMARK  136  A    between atoms: _313  and  _316
REMARK  137  A    between atoms: _316  and  _317
REMARK  138  A    between atoms: _320  and  _322
REMARK  139  A    between atoms: _322  and  _323
REMARK  140  A    between atoms: _322  and  _325
REMARK  141  A    between atoms: _325  and  _326
REMARK  142  A    between atoms: _329  and  _331
REMARK  143  A    between atoms: _331  and  _332
REMARK  144  A    between atoms: _331  and  _334
REMARK  145  A    between atoms: _334  and  _335
REMARK  146  A    between atoms: _337  and  _339
REMARK  147  A    between atoms: _339  and  _340
REMARK  148  A    between atoms: _339  and  _342
REMARK  149  A    between atoms: _342  and  _343
REMARK  150  A    between atoms: _343  and  _344
REMARK  151  A    between atoms: _344  and  _345
REMARK  152  A    between atoms: _345  and  _346
REMARK  153  A    between atoms: _351  and  _352
REMARK  154  A    between atoms: _357  and  _359
REMARK  155  A    between atoms: _359  and  _360
REMARK  156  A    between atoms: _359  and  _362
REMARK  157  A    between atoms: _362  and  _363
REMARK  158  A    between atoms: _366  and  _368
REMARK  159  A    between atoms: _368  and  _369
REMARK  160  A    between atoms: _372  and  _374
REMARK  161  A    between atoms: _374  and  _375
REMARK  162  A    between atoms: _374  and  _377
REMARK  163  A    between atoms: _377  and  _378
REMARK  164  A    between atoms: _383  and  _385
REMARK  165  A    between atoms: _385  and  _386
REMARK  166  A    between atoms: _385  and  _388
REMARK  167  A    between atoms: _391  and  _393
REMARK  168  A    between atoms: _393  and  _394
REMARK  169  A    between atoms: _393  and  _396
REMARK  170  A    between atoms: _396  and  _397
REMARK  171  A    between atoms: _397  and  _398
REMARK  172  A    between atoms: _398  and  _399
REMARK  173  A    between atoms: _408  and  _410
REMARK  174  A    between atoms: _410  and  _411
REMARK  175  A    between atoms: _410  and  _413
REMARK  176  A    between atoms: _413  and  _414
REMARK  177  A    between atoms: _419  and  _421
REMARK  178  A    between atoms: _421  and  _422
REMARK  179  A    between atoms: _421  and  _424
REMARK  180  A    between atoms: _424  and  _425
REMARK  181  A    between atoms: _431  and  _433
REMARK  182  A    between atoms: _433  and  _434
REMARK  183  A    between atoms: _433  and  _436
REMARK  184  A    between atoms: _436  and  _437
REMARK  185  A    between atoms: _439  and  _441
REMARK  186  A    between atoms: _441  and  _442
REMARK  187  A    between atoms: _441  and  _444
REMARK  188  A    between atoms: _444  and  _445
REMARK  189  A    between atoms: _445  and  _446
REMARK  190  A    between atoms: _449  and  _451
REMARK  191  A    between atoms: _451  and  _452
REMARK  192  A    between atoms: _451  and  _454
REMARK  193  A    between atoms: _454  and  _455
REMARK  194  A    between atoms: _458  and  _460
REMARK  195  A    between atoms: _460  and  _461
REMARK  196  A    between atoms: _460  and  _463
REMARK  197  A    between atoms: _463  and  _464
REMARK  198  A    between atoms: _466  and  _468
REMARK  199  A    between atoms: _468  and  _469
REMARK  200  A    between atoms: _468  and  _471
REMARK  201  A    between atoms: _471  and  _472
REMARK  202  A    between atoms: _472  and  _473
REMARK  203  A    between atoms: _476  and  _478
REMARK  204  A    between atoms: _478  and  _479
REMARK  205  A    between atoms: _478  and  _481
REMARK  206  A    between atoms: _481  and  _482
REMARK  207  A    between atoms: _488  and  _490
REMARK  208  A    between atoms: _490  and  _491
REMARK  209  A    between atoms: _490  and  _493
REMARK  210  A    between atoms: _493  and  _494
REMARK  211  A    between atoms: _499  and  _500
REMARK  212  A    between atoms: _502  and  _504
REMARK  213  A    between atoms: _504  and  _505
REMARK  214  A    between atoms: _504  and  _507
REMARK  215  A    between atoms: _507  and  _508
REMARK  216  A    between atoms: _511  and  _513
REMARK  217  A    between atoms: _513  and  _514
REMARK  218  A    between atoms: _513  and  _516
REMARK  219  A    between atoms: _516  and  _517
REMARK  220  A    between atoms: _520  and  _522
REMARK  221  A    between atoms: _522  and  _523
REMARK  222  A    between atoms: _522  and  _525
REMARK  223  A    between atoms: _525  and  _526
REMARK  224  A    between atoms: _531  and  _533
REMARK  225  A    between atoms: _533  and  _534
REMARK  226  A    between atoms: _533  and  _536
REMARK                            x       y       z     vdW  Elec       q    Type
REMARK                         _______ _______ _______ _____ _____    ______ ____
ROOT
ATOM      1  CB  ASN A   1       8.302  50.831  26.046  0.00  0.00    +0.110 C 
ENDROOT
BRANCH   1   2
ATOM      2  CG  ASN A   1       9.604  51.616  25.960  0.00  0.00    +0.221 C 
ATOM      3  ND2 ASN A   1      10.499  51.383  26.889  0.00  0.00    -0.329 N 
ATOM      4 HD21 ASN A   1      10.314  50.668  27.622  0.00  0.00    +0.145 HD
ATOM      5 HD22 ASN A   1      11.394  51.913  26.893  0.00  0.00    +0.145 HD
ATOM      6  OD1 ASN A   1       9.779  52.444  25.083  0.00  0.00    -0.275 OA
ENDBRANCH   1   2
BRANCH   1   7
ATOM      7  CA  ASN A   1       7.287  51.440  27.114  0.00  0.00    +0.142 C 
BRANCH   7   8
ATOM      8  N   ASN A   1       6.022  50.706  27.139  0.00  0.00    -0.239 NA
ATOM      9  H   ASN A   1       5.200  51.104  26.641  0.00  0.00    +0.142 HD
ENDBRANCH   7   8
BRANCH   7  10
ATOM     10  C   ASN A   1       7.081  52.909  26.917  0.00  0.00    +0.225 C 
ATOM     11  O   ASN A   1       6.264  53.422  26.082  0.00  0.00    -0.287 OA
ENDBRANCH   7  10
ENDBRANCH   1   7
TORSDOF 4
REMARK  Name = ../refined-set-2016/1m0q/1m0q_pocket.pdb
REMARK  226 active torsions:
REMARK  status: ('A' for Active; 'I' for Inactive)
REMARK    1  A    between atoms: _1  and  _3
REMARK    2  A    between atoms: _3  and  _4
REMARK    3  A    between atoms: _3  and  _6
REMARK    4  A    between atoms: _6  and  _7
REMARK    5  A    between atoms: _10  and  _12
REMARK    6  A    between atoms: _12  and  _13
REMARK    7  A    between atoms: _15  and  _17
REMARK    8  A    between atoms: _17  and  _18
REMARK    9  A    between atoms: _17  and  _20
REMARK   10  A    between atoms: _20  and  _21
REMARK   11  A    between atoms: _21  and  _22
REMARK   12  A    between atoms: _27  and  _29
REMARK   13  A    between atoms: _29  and  _30
REMARK   14  A    between atoms: _29  and  _32
REMARK   15  A    between atoms: _32  and  _33
REMARK   16  A    between atoms: _33  and  _34
REMARK   17  A    between atoms: _36  and  _38
REMARK   18  A    between atoms: _38  and  _39
REMARK   19  A    between atoms: _38  and  _41
REMARK   20  A    between atoms: _41  and  _42
REMARK   21  A    between atoms: _44  and  _46
REMARK   22  A    between atoms: _46  and  _47
REMARK   23  A    between atoms: _46  and  _49
REMARK   24  A    between atoms: _49  and  _50
REMARK   25  A    between atoms: _52  and  _54
REMARK   26  A    between atoms: _54  and  _55
REMARK   27  A    between atoms: _54  and  _57
REMARK   28  A    between atoms: _57  and  _58
REMARK   29  A    between atoms: _61  and  _63
REMARK   30  A    between atoms: _63  and  _64
REMARK   31  A    between atoms: _66  and  _68
REMARK   32  A    between atoms: _68  and  _69
REMARK   33  A    between atoms: _72  and  _74
REMARK   34  A    between atoms: _74  and  _75
REMARK   35  A    between atoms: _74  and  _77
REMARK   36  A    between atoms: _77  and  _78
REMARK   37  A    between atoms: _78  and  _79
REMARK   38  A    between atoms: _82  and  _84
REMARK   39  A    between atoms: _84  and  _85
REMARK   40  A    between atoms: _84  and  _87
REMARK   41  A    between atoms: _87  and  _88
REMARK   42  A    between atoms: _90  and  _92
REMARK   43  A    between atoms: _92  and  _93
REMARK   44  A    between atoms: _92  and  _95
REMARK   45  A    between atoms: _95  and  _96
REMARK   46  A    between atoms: _101  and  _103
REMARK   47  A    between atoms: _103  and  _104
REMARK   48  A    between atoms: _103  and  _106
REMARK   49  A    between atoms: _106  and  _107
REMARK   50  A    between atoms: _107  and  _108
REMARK   51  A    between atoms: _111  and  _113
REMARK   52  A    between atoms: _113  and  _114
REMARK   53  A    between atoms: _113  and  _116
REMARK   54  A    between atoms: _116  and  _117
REMARK   55  A    between atoms: _119  and  _121
REMARK   56  A    between atoms: _121  and  _122
REMARK   57  A    between atoms: _121  and  _124
REMARK   58  A    between atoms: _124  and  _125
REMARK   59  A    between atoms: _135  and  _137
REMARK   60  A    between atoms: _137  and  _138
REMARK   61  A    between atoms: _137  and  _140
REMARK   62  A    between atoms: _140  and  _141
REMARK   63  A    between atoms: _146  and  _148
REMARK   64  A    between atoms: _148  and  _149
REMARK   65  A    between atoms: _151  and  _153
REMARK   66  A    between atoms: _153  and  _154
REMARK   67  A    between atoms: _153  and  _156
REMARK   68  A    between atoms: _156  and  _157
REMARK   69  A    between atoms: _157  and  _158
REMARK   70  A    between atoms: _160  and  _162
REMARK   71  A    between atoms: _162  and  _163
REMARK   72  A    between atoms: _162  and  _165
REMARK   73  A    between atoms: _165  and  _166
REMARK   74  A    between atoms: _169  and  _171
REMARK   75  A    between atoms: _171  and  _172
REMARK   76  A    between atoms: _175  and  _177
REMARK   77  A    between atoms: _177  and  _178
REMARK   78  A    between atoms: _177  and  _180
REMARK   79  A    between atoms: _180  and  _181
REMARK   80  A    between atoms: _184  and  _186
REMARK   81  A    between atoms: _186  and  _187
REMARK   82  A    between atoms: _186  and  _189
REMARK   83  A    between atoms: _189  and  _190
REMARK   84  A    between atoms: _193  and  _195
REMARK   85  A    between atoms: _195  and  _196
REMARK   86  A    between atoms: _199  and  _201
REMARK   87  A    between atoms: _201  and  _202
REMARK   88  A    between atoms: _201  and  _204
REMARK   89  A    between atoms: _204  and  _205
REMARK   90  A    between atoms: _205  and  _206
REMARK   91  A    between atoms: _210  and  _211
REMARK   92  A    between atoms: _216  and  _218
REMARK   93  A    between atoms: _218  and  _219
REMARK   94  A    between atoms: _218  and  _221
REMARK   95  A    between atoms: _221  and  _222
REMARK   96  A    between atoms: _225  and  _227
REMARK   97  A    between atoms: _227  and  _228
REMARK   98  A    between atoms: _227  and  _230
REMARK   99  A    between atoms: _230  and  _231
REMARK  100  A    between atoms: _234  and  _236
REMARK  101  A    between atoms: _236  and  _237
REMARK  102  A    between atoms: _236  and  _239
REMARK  103  A    between atoms: _239  and  _240
REMARK  104  A    between atoms: _242  and  _244
REMARK  105  A    between atoms: _244  and  _245
REMARK  106  A    between atoms: _244  and  _247
REMARK  107  A    between atoms: _247  and  _248
REMARK  108  A    between atoms: _250  and  _252
REMARK  109  A    between atoms: _252  and  _253
REMARK  110  A    between atoms: _255  and  _257
REMARK  111  A    between atoms: _257  and  _258
REMARK  112  A    between atoms: _260  and  _262
REMARK  113  A    between atoms: _262  and  _263
REMARK  114  A    between atoms: _262  and  _265
REMARK  115  A    between atoms: _265  and  _266
REMARK  116  A    between atoms: _269  and  _271
REMARK  117  A    between atoms: _271  and  _272
REMARK  118  A    between atoms: _271  and  _274
REMARK  119  A    between atoms: _274  and  _275
REMARK  120  A    between atoms: _275  and  _276
REMARK  121  A    between atoms: _279  and  _281
REMARK  122  A    between atoms: _281  and  _282
REMARK  123  A    between atoms: _285  and  _287
REMARK  124  A    between atoms: _287  and  _288
REMARK  125  A    between atoms: _287  and  _290
REMARK  126  A    between atoms: _290  and  _291
REMARK  127  A    between atoms: _291  and  _292
REMARK  128  A    between atoms: _297  and  _299
REMARK  129  A    between atoms: _299  and  _300
REMARK  130  A    between atoms: _299  and  _302
REMARK  131  A    between atoms: _302  and  _303
REMARK  132  A    between atoms: _306  and  _308
REMARK  133  A    between atoms: _308  and  _309
REMARK  134  A    between atoms: _311  and  _313
REMARK  135  A    between atoms: _313  and  _314
REMARK  136  A    between atoms: _313  and  _316
REMARK  137  A    between atoms: _316  and  _317
REMARK  138  A    between atoms: _320  and  _322
REMARK  139  A    between atoms: _322  and  _323
REMARK  140  A    between atoms: _322  and  _325
REMARK  141  A    between atoms: _325  and  _326
REMARK  142  A    between atoms: _329  and  _331
REMARK  143  A    between atoms: _331  and  _332
REMARK  144  A    between atoms: _331  and  _334
REMARK  145  A    between atoms: _334  and  _335
REMARK  146  A    between atoms: _337  and  _339
REMARK  147  A    between atoms: _339  and  _340
REMARK  148  A    between atoms: _339  and  _342
REMARK  149  A    between atoms: _342  and  _343
REMARK  150  A    between atoms: _343  and  _344
REMARK  151  A    between atoms: _344  and  _345
REMARK  152  A    between atoms: _345  and  _346
REMARK  153  A    between atoms: _351  and  _352
REMARK  154  A    between atoms: _357  and  _359
REMARK  155  A    between atoms: _359  and  _360
REMARK  156  A    between atoms: _359  and  _362
REMARK  157  A    between atoms: _362  and  _363
REMARK  158  A    between atoms: _366  and  _368
REMARK  159  A    between atoms: _368  and  _369
REMARK  160  A    between atoms: _372  and  _374
REMARK  161  A    between atoms: _374  and  _375
REMARK  162  A    between atoms: _374  and  _377
REMARK  163  A    between atoms: _377  and  _378
REMARK  164  A    between atoms: _383  and  _385
REMARK  165  A    between atoms: _385  and  _386
REMARK  166  A    between atoms: _385  and  _388
REMARK  167  A    between atoms: _391  and  _393
REMARK  168  A    between atoms: _393  and  _394
REMARK  169  A    between atoms: _393  and  _396
REMARK  170  A    between atoms: _396  and  _397
REMARK  171  A    between atoms: _397  and  _398
REMARK  172  A    between atoms: _398  and  _399
REMARK  173  A    between atoms: _408  and  _410
REMARK  174  A    between atoms: _410  and  _411
REMARK  175  A    between atoms: _410  and  _413
REMARK  176  A    between atoms: _413  and  _414
REMARK  177  A    between atoms: _419  and  _421
REMARK  178  A    between atoms: _421  and  _422
REMARK  179  A    between atoms: _421  and  _424
REMARK  180  A    between atoms: _424  and  _425
REMARK  181  A    between atoms: _431  and  _433
REMARK  182  A    between atoms: _433  and  _434
REMARK  183  A    between atoms: _433  and  _436
REMARK  184  A    between atoms: _436  and  _437
REMARK  185  A    between atoms: _439  and  _441
REMARK  186  A    between atoms: _441  and  _442
REMARK  187  A    between atoms: _441  and  _444
REMARK  188  A    between atoms: _444  and  _445
REMARK  189  A    between atoms: _445  and  _446
REMARK  190  A    between atoms: _449  and  _451
REMARK  191  A    between atoms: _451  and  _452
REMARK  192  A    between atoms: _451  and  _454
REMARK  193  A    between atoms: _454  and  _455
REMARK  194  A    between atoms: _458  and  _460
REMARK  195  A    between atoms: _460  and  _461
REMARK  196  A    between atoms: _460  and  _463
REMARK  197  A    between atoms: _463  and  _464
REMARK  198  A    between atoms: _466  and  _468
REMARK  199  A    between atoms: _468  and  _469
REMARK  200  A    between atoms: _468  and  _471
REMARK  201  A    between atoms: _471  and  _472
REMARK  202  A    between atoms: _472  and  _473
REMARK  203  A    between atoms: _476  and  _478
REMARK  204  A    between atoms: _478  and  _479
REMARK  205  A    between atoms: _478  and  _481
REMARK  206  A    between atoms: _481  and  _482
REMARK  207  A    between atoms: _488  and  _490
REMARK  208  A    between atoms: _490  and  _491
REMARK  209  A    between atoms: _490  and  _493
REMARK  210  A    between atoms: _493  and  _494
REMARK  211  A    between atoms: _499  and  _500
REMARK  212  A    between atoms: _502  and  _504
REMARK  213  A    between atoms: _504  and  _505
REMARK  214  A    between atoms: _504  and  _507
REMARK  215  A    between atoms: _507  and  _508
REMARK  216  A    between atoms: _511  and  _513
REMARK  217  A    between atoms: _513  and  _514
REMARK  218  A    between atoms: _513  and  _516
REMARK  219  A    between atoms: _516  and  _517
REMARK  220  A    between atoms: _520  and  _522
REMARK  221  A    between atoms: _522  and  _523
REMARK  222  A    between atoms: _522  and  _525
REMARK  223  A    between atoms: _525  and  _526
REMARK  224  A    between atoms: _531  and  _533
REMARK  225  A    between atoms: _533  and  _534
REMARK  226  A    between atoms: _533  and  _536
REMARK                            x       y       z     vdW  Elec       q    Type
REMARK                         _______ _______ _______ _____ _____    ______ ____
ROOT
ATOM      1  CA  VAL A   1      10.232  57.400  26.269  0.00  0.00    +0.133 C 
ENDROOT
BRANCH   1   2
ATOM      2  CB  VAL A   1      10.659  57.342  24.717  0.00  0.00    +0.023 C 
ATOM      3  CG2 VAL A   1      10.801  55.847  24.240  0.00  0.00    +0.002 C 
ATOM      4  CG1 VAL A   1       9.701  58.193  23.771  0.00  0.00    +0.002 C 
ENDBRANCH   1   2
BRANCH   1   5
ATOM      5  N   VAL A   1       8.995  56.716  26.552  0.00  0.00    -0.239 NA
ATOM      6  H   VAL A   1       8.112  57.024  26.097  0.00  0.00    +0.142 HD
ENDBRANCH   1   5
BRANCH   1   7
ATOM      7  C   VAL A   1      10.082  58.818  26.680  0.00  0.00    +0.224 C 
ATOM      8  O   VAL A   1       8.990  59.416  26.613  0.00  0.00    -0.287 OA
ENDBRANCH   1   7
TORSDOF 3
REMARK  Name = ../refined-set-2016/1m0q/1m0q_pocket.pdb
REMARK  226 active torsions:
REMARK  status: ('A' for Active; 'I' for Inactive)
REMARK    1  A    between atoms: _1  and  _3
REMARK    2  A    between atoms: _3  and  _4
REMARK    3  A    between atoms: _3  and  _6
REMARK    4  A    between atoms: _6  and  _7
REMARK    5  A    between atoms: _10  and  _12
REMARK    6  A    between atoms: _12  and  _13
REMARK    7  A    between atoms: _15  and  _17
REMARK    8  A    between atoms: _17  and  _18
REMARK    9  A    between atoms: _17  and  _20
REMARK   10  A    between atoms: _20  and  _21
REMARK   11  A    between atoms: _21  and  _22
REMARK   12  A    between atoms: _27  and  _29
REMARK   13  A    between atoms: _29  and  _30
REMARK   14  A    between atoms: _29  and  _32
REMARK   15  A    between atoms: _32  and  _33
REMARK   16  A    between atoms: _33  and  _34
REMARK   17  A    between atoms: _36  and  _38
REMARK   18  A    between atoms: _38  and  _39
REMARK   19  A    between atoms: _38  and  _41
REMARK   20  A    between atoms: _41  and  _42
REMARK   21  A    between atoms: _44  and  _46
REMARK   22  A    between atoms: _46  and  _47
REMARK   23  A    between atoms: _46  and  _49
REMARK   24  A    between atoms: _49  and  _50
REMARK   25  A    between atoms: _52  and  _54
REMARK   26  A    between atoms: _54  and  _55
REMARK   27  A    between atoms: _54  and  _57
REMARK   28  A    between atoms: _57  and  _58
REMARK   29  A    between atoms: _61  and  _63
REMARK   30  A    between atoms: _63  and  _64
REMARK   31  A    between atoms: _66  and  _68
REMARK   32  A    between atoms: _68  and  _69
REMARK   33  A    between atoms: _72  and  _74
REMARK   34  A    between atoms: _74  and  _75
REMARK   35  A    between atoms: _74  and  _77
REMARK   36  A    between atoms: _77  and  _78
REMARK   37  A    between atoms: _78  and  _79
REMARK   38  A    between atoms: _82  and  _84
REMARK   39  A    between atoms: _84  and  _85
REMARK   40  A    between atoms: _84  and  _87
REMARK   41  A    between atoms: _87  and  _88
REMARK   42  A    between atoms: _90  and  _92
REMARK   43  A    between atoms: _92  and  _93
REMARK   44  A    between atoms: _92  and  _95
REMARK   45  A    between atoms: _95  and  _96
REMARK   46  A    between atoms: _101  and  _103
REMARK   47  A    between atoms: _103  and  _104
REMARK   48  A    between atoms: _103  and  _106
REMARK   49  A    between atoms: _106  and  _107
REMARK   50  A    between atoms: _107  and  _108
REMARK   51  A    between atoms: _111  and  _113
REMARK   52  A    between atoms: _113  and  _114
REMARK   53  A    between atoms: _113  and  _116
REMARK   54  A    between atoms: _116  and  _117
REMARK   55  A    between atoms: _119  and  _121
REMARK   56  A    between atoms: _121  and  _122
REMARK   57  A    between atoms: _121  and  _124
REMARK   58  A    between atoms: _124  and  _125
REMARK   59  A    between atoms: _135  and  _137
REMARK   60  A    between atoms: _137  and  _138
REMARK   61  A    between atoms: _137  and  _140
REMARK   62  A    between atoms: _140  and  _141
REMARK   63  A    between atoms: _146  and  _148
REMARK   64  A    between atoms: _148  and  _149
REMARK   65  A    between atoms: _151  and  _153
REMARK   66  A    between atoms: _153  and  _154
REMARK   67  A    between atoms: _153  and  _156
REMARK   68  A    between atoms: _156  and  _157
REMARK   69  A    between atoms: _157  and  _158
REMARK   70  A    between atoms: _160  and  _162
REMARK   71  A    between atoms: _162  and  _163
REMARK   72  A    between atoms: _162  and  _165
REMARK   73  A    between atoms: _165  and  _166
REMARK   74  A    between atoms: _169  and  _171
REMARK   75  A    between atoms: _171  and  _172
REMARK   76  A    between atoms: _175  and  _177
REMARK   77  A    between atoms: _177  and  _178
REMARK   78  A    between atoms: _177  and  _180
REMARK   79  A    between atoms: _180  and  _181
REMARK   80  A    between atoms: _184  and  _186
REMARK   81  A    between atoms: _186  and  _187
REMARK   82  A    between atoms: _186  and  _189
REMARK   83  A    between atoms: _189  and  _190
REMARK   84  A    between atoms: _193  and  _195
REMARK   85  A    between atoms: _195  and  _196
REMARK   86  A    between atoms: _199  and  _201
REMARK   87  A    between atoms: _201  and  _202
REMARK   88  A    between atoms: _201  and  _204
REMARK   89  A    between atoms: _204  and  _205
REMARK   90  A    between atoms: _205  and  _206
REMARK   91  A    between atoms: _210  and  _211
REMARK   92  A    between atoms: _216  and  _218
REMARK   93  A    between atoms: _218  and  _219
REMARK   94  A    between atoms: _218  and  _221
REMARK   95  A    between atoms: _221  and  _222
REMARK   96  A    between atoms: _225  and  _227
REMARK   97  A    between atoms: _227  and  _228
REMARK   98  A    between atoms: _227  and  _230
REMARK   99  A    between atoms: _230  and  _231
REMARK  100  A    between atoms: _234  and  _236
REMARK  101  A    between atoms: _236  and  _237
REMARK  102  A    between atoms: _236  and  _239
REMARK  103  A    between atoms: _239  and  _240
REMARK  104  A    between atoms: _242  and  _244
REMARK  105  A    between atoms: _244  and  _245
REMARK  106  A    between atoms: _244  and  _247
REMARK  107  A    between atoms: _247  and  _248
REMARK  108  A    between atoms: _250  and  _252
REMARK  109  A    between atoms: _252  and  _253
REMARK  110  A    between atoms: _255  and  _257
REMARK  111  A    between atoms: _257  and  _258
REMARK  112  A    between atoms: _260  and  _262
REMARK  113  A    between atoms: _262  and  _263
REMARK  114  A    between atoms: _262  and  _265
REMARK  115  A    between atoms: _265  and  _266
REMARK  116  A    between atoms: _269  and  _271
REMARK  117  A    between atoms: _271  and  _272
REMARK  118  A    between atoms: _271  and  _274
REMARK  119  A    between atoms: _274  and  _275
REMARK  120  A    between atoms: _275  and  _276
REMARK  121  A    between atoms: _279  and  _281
REMARK  122  A    between atoms: _281  and  _282
REMARK  123  A    between atoms: _285  and  _287
REMARK  124  A    between atoms: _287  and  _288
REMARK  125  A    between atoms: _287  and  _290
REMARK  126  A    between atoms: _290  and  _291
REMARK  127  A    between atoms: _291  and  _292
REMARK  128  A    between atoms: _297  and  _299
REMARK  129  A    between atoms: _299  and  _300
REMARK  130  A    between atoms: _299  and  _302
REMARK  131  A    between atoms: _302  and  _303
REMARK  132  A    between atoms: _306  and  _308
REMARK  133  A    between atoms: _308  and  _309
REMARK  134  A    between atoms: _311  and  _313
REMARK  135  A    between atoms: _313  and  _314
REMARK  136  A    between atoms: _313  and  _316
REMARK  137  A    between atoms: _316  and  _317
REMARK  138  A    between atoms: _320  and  _322
REMARK  139  A    between atoms: _322  and  _323
REMARK  140  A    between atoms: _322  and  _325
REMARK  141  A    between atoms: _325  and  _326
REMARK  142  A    between atoms: _329  and  _331
REMARK  143  A    between atoms: _331  and  _332
REMARK  144  A    between atoms: _331  and  _334
REMARK  145  A    between atoms: _334  and  _335
REMARK  146  A    between atoms: _337  and  _339
REMARK  147  A    between atoms: _339  and  _340
REMARK  148  A    between atoms: _339  and  _342
REMARK  149  A    between atoms: _342  and  _343
REMARK  150  A    between atoms: _343  and  _344
REMARK  151  A    between atoms: _344  and  _345
REMARK  152  A    between atoms: _345  and  _346
REMARK  153  A    between atoms: _351  and  _352
REMARK  154  A    between atoms: _357  and  _359
REMARK  155  A    between atoms: _359  and  _360
REMARK  156  A    between atoms: _359  and  _362
REMARK  157  A    between atoms: _362  and  _363
REMARK  158  A    between atoms: _366  and  _368
REMARK  159  A    between atoms: _368  and  _369
REMARK  160  A    between atoms: _372  and  _374
REMARK  161  A    between atoms: _374  and  _375
REMARK  162  A    between atoms: _374  and  _377
REMARK  163  A    between atoms: _377  and  _378
REMARK  164  A    between atoms: _383  and  _385
REMARK  165  A    between atoms: _385  and  _386
REMARK  166  A    between atoms: _385  and  _388
REMARK  167  A    between atoms: _391  and  _393
REMARK  168  A    between atoms: _393  and  _394
REMARK  169  A    between atoms: _393  and  _396
REMARK  170  A    between atoms: _396  and  _397
REMARK  171  A    between atoms: _397  and  _398
REMARK  172  A    between atoms: _398  and  _399
REMARK  173  A    between atoms: _408  and  _410
REMARK  174  A    between atoms: _410  and  _411
REMARK  175  A    between atoms: _410  and  _413
REMARK  176  A    between atoms: _413  and  _414
REMARK  177  A    between atoms: _419  and  _421
REMARK  178  A    between atoms: _421  and  _422
REMARK  179  A    between atoms: _421  and  _424
REMARK  180  A    between atoms: _424  and  _425
REMARK  181  A    between atoms: _431  and  _433
REMARK  182  A    between atoms: _433  and  _434
REMARK  183  A    between atoms: _433  and  _436
REMARK  184  A    between atoms: _436  and  _437
REMARK  185  A    between atoms: _439  and  _441
REMARK  186  A    between atoms: _441  and  _442
REMARK  187  A    between atoms: _441  and  _444
REMARK  188  A    between atoms: _444  and  _445
REMARK  189  A    between atoms: _445  and  _446
REMARK  190  A    between atoms: _449  and  _451
REMARK  191  A    between atoms: _451  and  _452
REMARK  192  A    between atoms: _451  and  _454
REMARK  193  A    between atoms: _454  and  _455
REMARK  194  A    between atoms: _458  and  _460
REMARK  195  A    between atoms: _460  and  _461
REMARK  196  A    between atoms: _460  and  _463
REMARK  197  A    between atoms: _463  and  _464
REMARK  198  A    between atoms: _466  and  _468
REMARK  199  A    between atoms: _468  and  _469
REMARK  200  A    between atoms: _468  and  _471
REMARK  201  A    between atoms: _471  and  _472
REMARK  202  A    between atoms: _472  and  _473
REMARK  203  A    between atoms: _476  and  _478
REMARK  204  A    between atoms: _478  and  _479
REMARK  205  A    between atoms: _478  and  _481
REMARK  206  A    between atoms: _481  and  _482
REMARK  207  A    between atoms: _488  and  _490
REMARK  208  A    between atoms: _490  and  _491
REMARK  209  A    between atoms: _490  and  _493
REMARK  210  A    between atoms: _493  and  _494
REMARK  211  A    between atoms: _499  and  _500
REMARK  212  A    between atoms: _502  and  _504
REMARK  213  A    between atoms: _504  and  _505
REMARK  214  A    between atoms: _504  and  _507
REMARK  215  A    between atoms: _507  and  _508
REMARK  216  A    between atoms: _511  and  _513
REMARK  217  A    between atoms: _513  and  _514
REMARK  218  A    between atoms: _513  and  _516
REMARK  219  A    between atoms: _516  and  _517
REMARK  220  A    between atoms: _520  and  _522
REMARK  221  A    between atoms: _522  and  _523
REMARK  222  A    between atoms: _522  and  _525
REMARK  223  A    between atoms: _525  and  _526
REMARK  224  A    between atoms: _531  and  _533
REMARK  225  A    between atoms: _533  and  _534
REMARK  226  A    between atoms: _533  and  _536
REMARK                            x       y       z     vdW  Elec       q    Type
REMARK                         _______ _______ _______ _____ _____    ______ ____
ROOT
ATOM      1  NE  ARG A   1       9.821  53.652  22.147  0.00  0.00    -0.265 N 
ATOM      2  HE  ARG A   1       9.533  53.358  23.102  0.00  0.00    +0.259 HD
ATOM      3  CZ  ARG A   1      10.909  53.080  21.623  0.00  0.00    +0.342 C 
ATOM      4  NH2 ARG A   1      11.616  52.188  22.328  0.00  0.00    -0.292 N 
ATOM      5 HH21 ARG A   1      11.320  51.935  23.292  0.00  0.00    +0.255 HD
ATOM      6 HH22 ARG A   1      12.461  51.748  21.911  0.00  0.00    +0.255 HD
ATOM      7  NH1 ARG A   1      11.305  53.402  20.395  0.00  0.00    -0.292 N 
ATOM      8 HH11 ARG A   1      12.152  52.956  19.988  0.00  0.00    +0.255 HD
ATOM      9 HH12 ARG A   1      10.768  54.100  19.842  0.00  0.00    +0.255 HD
ENDROOT
BRANCH   1  10
ATOM     10  CD  ARG A   1       8.997  54.675  21.464  0.00  0.00    +0.174 C 
BRANCH  10  11
ATOM     11  CG  ARG A   1       7.614  54.839  22.117  0.00  0.00    +0.045 C 
BRANCH  11  12
ATOM     12  CB  ARG A   1       6.682  53.531  21.999  0.00  0.00    +0.029 C 
BRANCH  12  13
ATOM     13  CA  ARG A   1       5.180  53.805  22.281  0.00  0.00    +0.133 C 
BRANCH  13  14
ATOM     14  N   ARG A   1       4.986  54.237  23.679  0.00  0.00    -0.239 NA
ATOM     15  H   ARG A   1       5.470  53.732  24.449  0.00  0.00    +0.142 HD
ENDBRANCH  13  14
BRANCH  13  16
ATOM     16  C   ARG A   1       4.387  52.518  22.200  0.00  0.00    +0.224 C 
ATOM     17  O   ARG A   1       4.787  51.513  22.758  0.00  0.00    -0.287 OA
ENDBRANCH  13  16
ENDBRANCH  12  13
ENDBRANCH  11  12
ENDBRANCH  10  11
ENDBRANCH   1  10
TORSDOF 6
REMARK  Name = ../refined-set-2016/1m0q/1m0q_pocket.pdb
REMARK  226 active torsions:
REMARK  status: ('A' for Active; 'I' for Inactive)
REMARK    1  A    between atoms: _1  and  _3
REMARK    2  A    between atoms: _3  and  _4
REMARK    3  A    between atoms: _3  and  _6
REMARK    4  A    between atoms: _6  and  _7
REMARK    5  A    between atoms: _10  and  _12
REMARK    6  A    between atoms: _12  and  _13
REMARK    7  A    between atoms: _15  and  _17
REMARK    8  A    between atoms: _17  and  _18
REMARK    9  A    between atoms: _17  and  _20
REMARK   10  A    between atoms: _20  and  _21
REMARK   11  A    between atoms: _21  and  _22
REMARK   12  A    between atoms: _27  and  _29
REMARK   13  A    between atoms: _29  and  _30
REMARK   14  A    between atoms: _29  and  _32
REMARK   15  A    between atoms: _32  and  _33
REMARK   16  A    between atoms: _33  and  _34
REMARK   17  A    between atoms: _36  and  _38
REMARK   18  A    between atoms: _38  and  _39
REMARK   19  A    between atoms: _38  and  _41
REMARK   20  A    between atoms: _41  and  _42
REMARK   21  A    between atoms: _44  and  _46
REMARK   22  A    between atoms: _46  and  _47
REMARK   23  A    between atoms: _46  and  _49
REMARK   24  A    between atoms: _49  and  _50
REMARK   25  A    between atoms: _52  and  _54
REMARK   26  A    between atoms: _54  and  _55
REMARK   27  A    between atoms: _54  and  _57
REMARK   28  A    between atoms: _57  and  _58
REMARK   29  A    between atoms: _61  and  _63
REMARK   30  A    between atoms: _63  and  _64
REMARK   31  A    between atoms: _66  and  _68
REMARK   32  A    between atoms: _68  and  _69
REMARK   33  A    between atoms: _72  and  _74
REMARK   34  A    between atoms: _74  and  _75
REMARK   35  A    between atoms: _74  and  _77
REMARK   36  A    between atoms: _77  and  _78
REMARK   37  A    between atoms: _78  and  _79
REMARK   38  A    between atoms: _82  and  _84
REMARK   39  A    between atoms: _84  and  _85
REMARK   40  A    between atoms: _84  and  _87
REMARK   41  A    between atoms: _87  and  _88
REMARK   42  A    between atoms: _90  and  _92
REMARK   43  A    between atoms: _92  and  _93
REMARK   44  A    between atoms: _92  and  _95
REMARK   45  A    between atoms: _95  and  _96
REMARK   46  A    between atoms: _101  and  _103
REMARK   47  A    between atoms: _103  and  _104
REMARK   48  A    between atoms: _103  and  _106
REMARK   49  A    between atoms: _106  and  _107
REMARK   50  A    between atoms: _107  and  _108
REMARK   51  A    between atoms: _111  and  _113
REMARK   52  A    between atoms: _113  and  _114
REMARK   53  A    between atoms: _113  and  _116
REMARK   54  A    between atoms: _116  and  _117
REMARK   55  A    between atoms: _119  and  _121
REMARK   56  A    between atoms: _121  and  _122
REMARK   57  A    between atoms: _121  and  _124
REMARK   58  A    between atoms: _124  and  _125
REMARK   59  A    between atoms: _135  and  _137
REMARK   60  A    between atoms: _137  and  _138
REMARK   61  A    between atoms: _137  and  _140
REMARK   62  A    between atoms: _140  and  _141
REMARK   63  A    between atoms: _146  and  _148
REMARK   64  A    between atoms: _148  and  _149
REMARK   65  A    between atoms: _151  and  _153
REMARK   66  A    between atoms: _153  and  _154
REMARK   67  A    between atoms: _153  and  _156
REMARK   68  A    between atoms: _156  and  _157
REMARK   69  A    between atoms: _157  and  _158
REMARK   70  A    between atoms: _160  and  _162
REMARK   71  A    between atoms: _162  and  _163
REMARK   72  A    between atoms: _162  and  _165
REMARK   73  A    between atoms: _165  and  _166
REMARK   74  A    between atoms: _169  and  _171
REMARK   75  A    between atoms: _171  and  _172
REMARK   76  A    between atoms: _175  and  _177
REMARK   77  A    between atoms: _177  and  _178
REMARK   78  A    between atoms: _177  and  _180
REMARK   79  A    between atoms: _180  and  _181
REMARK   80  A    between atoms: _184  and  _186
REMARK   81  A    between atoms: _186  and  _187
REMARK   82  A    between atoms: _186  and  _189
REMARK   83  A    between atoms: _189  and  _190
REMARK   84  A    between atoms: _193  and  _195
REMARK   85  A    between atoms: _195  and  _196
REMARK   86  A    between atoms: _199  and  _201
REMARK   87  A    between atoms: _201  and  _202
REMARK   88  A    between atoms: _201  and  _204
REMARK   89  A    between atoms: _204  and  _205
REMARK   90  A    between atoms: _205  and  _206
REMARK   91  A    between atoms: _210  and  _211
REMARK   92  A    between atoms: _216  and  _218
REMARK   93  A    between atoms: _218  and  _219
REMARK   94  A    between atoms: _218  and  _221
REMARK   95  A    between atoms: _221  and  _222
REMARK   96  A    between atoms: _225  and  _227
REMARK   97  A    between atoms: _227  and  _228
REMARK   98  A    between atoms: _227  and  _230
REMARK   99  A    between atoms: _230  and  _231
REMARK  100  A    between atoms: _234  and  _236
REMARK  101  A    between atoms: _236  and  _237
REMARK  102  A    between atoms: _236  and  _239
REMARK  103  A    between atoms: _239  and  _240
REMARK  104  A    between atoms: _242  and  _244
REMARK  105  A    between atoms: _244  and  _245
REMARK  106  A    between atoms: _244  and  _247
REMARK  107  A    between atoms: _247  and  _248
REMARK  108  A    between atoms: _250  and  _252
REMARK  109  A    between atoms: _252  and  _253
REMARK  110  A    between atoms: _255  and  _257
REMARK  111  A    between atoms: _257  and  _258
REMARK  112  A    between atoms: _260  and  _262
REMARK  113  A    between atoms: _262  and  _263
REMARK  114  A    between atoms: _262  and  _265
REMARK  115  A    between atoms: _265  and  _266
REMARK  116  A    between atoms: _269  and  _271
REMARK  117  A    between atoms: _271  and  _272
REMARK  118  A    between atoms: _271  and  _274
REMARK  119  A    between atoms: _274  and  _275
REMARK  120  A    between atoms: _275  and  _276
REMARK  121  A    between atoms: _279  and  _281
REMARK  122  A    between atoms: _281  and  _282
REMARK  123  A    between atoms: _285  and  _287
REMARK  124  A    between atoms: _287  and  _288
REMARK  125  A    between atoms: _287  and  _290
REMARK  126  A    between atoms: _290  and  _291
REMARK  127  A    between atoms: _291  and  _292
REMARK  128  A    between atoms: _297  and  _299
REMARK  129  A    between atoms: _299  and  _300
REMARK  130  A    between atoms: _299  and  _302
REMARK  131  A    between atoms: _302  and  _303
REMARK  132  A    between atoms: _306  and  _308
REMARK  133  A    between atoms: _308  and  _309
REMARK  134  A    between atoms: _311  and  _313
REMARK  135  A    between atoms: _313  and  _314
REMARK  136  A    between atoms: _313  and  _316
REMARK  137  A    between atoms: _316  and  _317
REMARK  138  A    between atoms: _320  and  _322
REMARK  139  A    between atoms: _322  and  _323
REMARK  140  A    between atoms: _322  and  _325
REMARK  141  A    between atoms: _325  and  _326
REMARK  142  A    between atoms: _329  and  _331
REMARK  143  A    between atoms: _331  and  _332
REMARK  144  A    between atoms: _331  and  _334
REMARK  145  A    between atoms: _334  and  _335
REMARK  146  A    between atoms: _337  and  _339
REMARK  147  A    between atoms: _339  and  _340
REMARK  148  A    between atoms: _339  and  _342
REMARK  149  A    between atoms: _342  and  _343
REMARK  150  A    between atoms: _343  and  _344
REMARK  151  A    between atoms: _344  and  _345
REMARK  152  A    between atoms: _345  and  _346
REMARK  153  A    between atoms: _351  and  _352
REMARK  154  A    between atoms: _357  and  _359
REMARK  155  A    between atoms: _359  and  _360
REMARK  156  A    between atoms: _359  and  _362
REMARK  157  A    between atoms: _362  and  _363
REMARK  158  A    between atoms: _366  and  _368
REMARK  159  A    between atoms: _368  and  _369
REMARK  160  A    between atoms: _372  and  _374
REMARK  161  A    between atoms: _374  and  _375
REMARK  162  A    between atoms: _374  and  _377
REMARK  163  A    between atoms: _377  and  _378
REMARK  164  A    between atoms: _383  and  _385
REMARK  165  A    between atoms: _385  and  _386
REMARK  166  A    between atoms: _385  and  _388
REMARK  167  A    between atoms: _391  and  _393
REMARK  168  A    between atoms: _393  and  _394
REMARK  169  A    between atoms: _393  and  _396
REMARK  170  A    between atoms: _396  and  _397
REMARK  171  A    between atoms: _397  and  _398
REMARK  172  A    between atoms: _398  and  _399
REMARK  173  A    between atoms: _408  and  _410
REMARK  174  A    between atoms: _410  and  _411
REMARK  175  A    between atoms: _410  and  _413
REMARK  176  A    between atoms: _413  and  _414
REMARK  177  A    between atoms: _419  and  _421
REMARK  178  A    between atoms: _421  and  _422
REMARK  179  A    between atoms: _421  and  _424
REMARK  180  A    between atoms: _424  and  _425
REMARK  181  A    between atoms: _431  and  _433
REMARK  182  A    between atoms: _433  and  _434
REMARK  183  A    between atoms: _433  and  _436
REMARK  184  A    between atoms: _436  and  _437
REMARK  185  A    between atoms: _439  and  _441
REMARK  186  A    between atoms: _441  and  _442
REMARK  187  A    between atoms: _441  and  _444
REMARK  188  A    between atoms: _444  and  _445
REMARK  189  A    between atoms: _445  and  _446
REMARK  190  A    between atoms: _449  and  _451
REMARK  191  A    between atoms: _451  and  _452
REMARK  192  A    between atoms: _451  and  _454
REMARK  193  A    between atoms: _454  and  _455
REMARK  194  A    between atoms: _458  and  _460
REMARK  195  A    between atoms: _460  and  _461
REMARK  196  A    between atoms: _460  and  _463
REMARK  197  A    between atoms: _463  and  _464
REMARK  198  A    between atoms: _466  and  _468
REMARK  199  A    between atoms: _468  and  _469
REMARK  200  A    between atoms: _468  and  _471
REMARK  201  A    between atoms: _471  and  _472
REMARK  202  A    between atoms: _472  and  _473
REMARK  203  A    between atoms: _476  and  _478
REMARK  204  A    between atoms: _478  and  _479
REMARK  205  A    between atoms: _478  and  _481
REMARK  206  A    between atoms: _481  and  _482
REMARK  207  A    between atoms: _488  and  _490
REMARK  208  A    between atoms: _490  and  _491
REMARK  209  A    between atoms: _490  and  _493
REMARK  210  A    between atoms: _493  and  _494
REMARK  211  A    between atoms: _499  and  _500
REMARK  212  A    between atoms: _502  and  _504
REMARK  213  A    between atoms: _504  and  _505
REMARK  214  A    between atoms: _504  and  _507
REMARK  215  A    between atoms: _507  and  _508
REMARK  216  A    between atoms: _511  and  _513
REMARK  217  A    between atoms: _513  and  _514
REMARK  218  A    between atoms: _513  and  _516
REMARK  219  A    between atoms: _516  and  _517
REMARK  220  A    between atoms: _520  and  _522
REMARK  221  A    between atoms: _522  and  _523
REMARK  222  A    between atoms: _522  and  _525
REMARK  223  A    between atoms: _525  and  _526
REMARK  224  A    between atoms: _531  and  _533
REMARK  225  A    between atoms: _533  and  _534
REMARK  226  A    between atoms: _533  and  _536
REMARK                            x       y       z     vdW  Elec       q    Type
REMARK                         _______ _______ _______ _____ _____    ______ ____
ROOT
ATOM      1  CB  HIS A   1      12.744  38.209  19.535  0.00  0.00    +0.072 C 
ENDROOT
BRANCH   1   2
ATOM      2  CG  HIS A   1      12.771  39.713  19.576  0.00  0.00    +0.082 A 
ATOM      3  CD2 HIS A   1      11.777  40.624  19.705  0.00  0.00    +0.115 A 
ATOM      4  NE2 HIS A   1      12.368  41.875  19.752  0.00  0.00    -0.221 NA
ATOM      5  CE1 HIS A   1      13.684  41.722  19.704  0.00  0.00    +0.199 A 
ATOM      6  ND1 HIS A   1      13.945  40.434  19.528  0.00  0.00    -0.227 NA
ENDBRANCH   1   2
BRANCH   1   7
ATOM      7  CA  HIS A   1      12.943  37.554  20.898  0.00  0.00    +0.139 C 
BRANCH   7   8
ATOM      8  N   HIS A   1      12.457  36.219  20.840  0.00  0.00    -0.239 NA
ATOM      9  H   HIS A   1      11.430  36.059  20.812  0.00  0.00    +0.142 HD
ENDBRANCH   7   8
BRANCH   7  10
ATOM     10  C   HIS A   1      12.076  38.306  21.928  0.00  0.00    +0.224 C 
ATOM     11  O   HIS A   1      10.861  38.076  21.974  0.00  0.00    -0.287 OA
ENDBRANCH   7  10
ENDBRANCH   1   7
TORSDOF 4
REMARK  Name = ../refined-set-2016/1m0q/1m0q_pocket.pdb
REMARK  226 active torsions:
REMARK  status: ('A' for Active; 'I' for Inactive)
REMARK    1  A    between atoms: _1  and  _3
REMARK    2  A    between atoms: _3  and  _4
REMARK    3  A    between atoms: _3  and  _6
REMARK    4  A    between atoms: _6  and  _7
REMARK    5  A    between atoms: _10  and  _12
REMARK    6  A    between atoms: _12  and  _13
REMARK    7  A    between atoms: _15  and  _17
REMARK    8  A    between atoms: _17  and  _18
REMARK    9  A    between atoms: _17  and  _20
REMARK   10  A    between atoms: _20  and  _21
REMARK   11  A    between atoms: _21  and  _22
REMARK   12  A    between atoms: _27  and  _29
REMARK   13  A    between atoms: _29  and  _30
REMARK   14  A    between atoms: _29  and  _32
REMARK   15  A    between atoms: _32  and  _33
REMARK   16  A    between atoms: _33  and  _34
REMARK   17  A    between atoms: _36  and  _38
REMARK   18  A    between atoms: _38  and  _39
REMARK   19  A    between atoms: _38  and  _41
REMARK   20  A    between atoms: _41  and  _42
REMARK   21  A    between atoms: _44  and  _46
REMARK   22  A    between atoms: _46  and  _47
REMARK   23  A    between atoms: _46  and  _49
REMARK   24  A    between atoms: _49  and  _50
REMARK   25  A    between atoms: _52  and  _54
REMARK   26  A    between atoms: _54  and  _55
REMARK   27  A    between atoms: _54  and  _57
REMARK   28  A    between atoms: _57  and  _58
REMARK   29  A    between atoms: _61  and  _63
REMARK   30  A    between atoms: _63  and  _64
REMARK   31  A    between atoms: _66  and  _68
REMARK   32  A    between atoms: _68  and  _69
REMARK   33  A    between atoms: _72  and  _74
REMARK   34  A    between atoms: _74  and  _75
REMARK   35  A    between atoms: _74  and  _77
REMARK   36  A    between atoms: _77  and  _78
REMARK   37  A    between atoms: _78  and  _79
REMARK   38  A    between atoms: _82  and  _84
REMARK   39  A    between atoms: _84  and  _85
REMARK   40  A    between atoms: _84  and  _87
REMARK   41  A    between atoms: _87  and  _88
REMARK   42  A    between atoms: _90  and  _92
REMARK   43  A    between atoms: _92  and  _93
REMARK   44  A    between atoms: _92  and  _95
REMARK   45  A    between atoms: _95  and  _96
REMARK   46  A    between atoms: _101  and  _103
REMARK   47  A    between atoms: _103  and  _104
REMARK   48  A    between atoms: _103  and  _106
REMARK   49  A    between atoms: _106  and  _107
REMARK   50  A    between atoms: _107  and  _108
REMARK   51  A    between atoms: _111  and  _113
REMARK   52  A    between atoms: _113  and  _114
REMARK   53  A    between atoms: _113  and  _116
REMARK   54  A    between atoms: _116  and  _117
REMARK   55  A    between atoms: _119  and  _121
REMARK   56  A    between atoms: _121  and  _122
REMARK   57  A    between atoms: _121  and  _124
REMARK   58  A    between atoms: _124  and  _125
REMARK   59  A    between atoms: _135  and  _137
REMARK   60  A    between atoms: _137  and  _138
REMARK   61  A    between atoms: _137  and  _140
REMARK   62  A    between atoms: _140  and  _141
REMARK   63  A    between atoms: _146  and  _148
REMARK   64  A    between atoms: _148  and  _149
REMARK   65  A    between atoms: _151  and  _153
REMARK   66  A    between atoms: _153  and  _154
REMARK   67  A    between atoms: _153  and  _156
REMARK   68  A    between atoms: _156  and  _157
REMARK   69  A    between atoms: _157  and  _158
REMARK   70  A    between atoms: _160  and  _162
REMARK   71  A    between atoms: _162  and  _163
REMARK   72  A    between atoms: _162  and  _165
REMARK   73  A    between atoms: _165  and  _166
REMARK   74  A    between atoms: _169  and  _171
REMARK   75  A    between atoms: _171  and  _172
REMARK   76  A    between atoms: _175  and  _177
REMARK   77  A    between atoms: _177  and  _178
REMARK   78  A    between atoms: _177  and  _180
REMARK   79  A    between atoms: _180  and  _181
REMARK   80  A    between atoms: _184  and  _186
REMARK   81  A    between atoms: _186  and  _187
REMARK   82  A    between atoms: _186  and  _189
REMARK   83  A    between atoms: _189  and  _190
REMARK   84  A    between atoms: _193  and  _195
REMARK   85  A    between atoms: _195  and  _196
REMARK   86  A    between atoms: _199  and  _201
REMARK   87  A    between atoms: _201  and  _202
REMARK   88  A    between atoms: _201  and  _204
REMARK   89  A    between atoms: _204  and  _205
REMARK   90  A    between atoms: _205  and  _206
REMARK   91  A    between atoms: _210  and  _211
REMARK   92  A    between atoms: _216  and  _218
REMARK   93  A    between atoms: _218  and  _219
REMARK   94  A    between atoms: _218  and  _221
REMARK   95  A    between atoms: _221  and  _222
REMARK   96  A    between atoms: _225  and  _227
REMARK   97  A    between atoms: _227  and  _228
REMARK   98  A    between atoms: _227  and  _230
REMARK   99  A    between atoms: _230  and  _231
REMARK  100  A    between atoms: _234  and  _236
REMARK  101  A    between atoms: _236  and  _237
REMARK  102  A    between atoms: _236  and  _239
REMARK  103  A    between atoms: _239  and  _240
REMARK  104  A    between atoms: _242  and  _244
REMARK  105  A    between atoms: _244  and  _245
REMARK  106  A    between atoms: _244  and  _247
REMARK  107  A    between atoms: _247  and  _248
REMARK  108  A    between atoms: _250  and  _252
REMARK  109  A    between atoms: _252  and  _253
REMARK  110  A    between atoms: _255  and  _257
REMARK  111  A    between atoms: _257  and  _258
REMARK  112  A    between atoms: _260  and  _262
REMARK  113  A    between atoms: _262  and  _263
REMARK  114  A    between atoms: _262  and  _265
REMARK  115  A    between atoms: _265  and  _266
REMARK  116  A    between atoms: _269  and  _271
REMARK  117  A    between atoms: _271  and  _272
REMARK  118  A    between atoms: _271  and  _274
REMARK  119  A    between atoms: _274  and  _275
REMARK  120  A    between atoms: _275  and  _276
REMARK  121  A    between atoms: _279  and  _281
REMARK  122  A    between atoms: _281  and  _282
REMARK  123  A    between atoms: _285  and  _287
REMARK  124  A    between atoms: _287  and  _288
REMARK  125  A    between atoms: _287  and  _290
REMARK  126  A    between atoms: _290  and  _291
REMARK  127  A    between atoms: _291  and  _292
REMARK  128  A    between atoms: _297  and  _299
REMARK  129  A    between atoms: _299  and  _300
REMARK  130  A    between atoms: _299  and  _302
REMARK  131  A    between atoms: _302  and  _303
REMARK  132  A    between atoms: _306  and  _308
REMARK  133  A    between atoms: _308  and  _309
REMARK  134  A    between atoms: _311  and  _313
REMARK  135  A    between atoms: _313  and  _314
REMARK  136  A    between atoms: _313  and  _316
REMARK  137  A    between atoms: _316  and  _317
REMARK  138  A    between atoms: _320  and  _322
REMARK  139  A    between atoms: _322  and  _323
REMARK  140  A    between atoms: _322  and  _325
REMARK  141  A    between atoms: _325  and  _326
REMARK  142  A    between atoms: _329  and  _331
REMARK  143  A    between atoms: _331  and  _332
REMARK  144  A    between atoms: _331  and  _334
REMARK  145  A    between atoms: _334  and  _335
REMARK  146  A    between atoms: _337  and  _339
REMARK  147  A    between atoms: _339  and  _340
REMARK  148  A    between atoms: _339  and  _342
REMARK  149  A    between atoms: _342  and  _343
REMARK  150  A    between atoms: _343  and  _344
REMARK  151  A    between atoms: _344  and  _345
REMARK  152  A    between atoms: _345  and  _346
REMARK  153  A    between atoms: _351  and  _352
REMARK  154  A    between atoms: _357  and  _359
REMARK  155  A    between atoms: _359  and  _360
REMARK  156  A    between atoms: _359  and  _362
REMARK  157  A    between atoms: _362  and  _363
REMARK  158  A    between atoms: _366  and  _368
REMARK  159  A    between atoms: _368  and  _369
REMARK  160  A    between atoms: _372  and  _374
REMARK  161  A    between atoms: _374  and  _375
REMARK  162  A    between atoms: _374  and  _377
REMARK  163  A    between atoms: _377  and  _378
REMARK  164  A    between atoms: _383  and  _385
REMARK  165  A    between atoms: _385  and  _386
REMARK  166  A    between atoms: _385  and  _388
REMARK  167  A    between atoms: _391  and  _393
REMARK  168  A    between atoms: _393  and  _394
REMARK  169  A    between atoms: _393  and  _396
REMARK  170  A    between atoms: _396  and  _397
REMARK  171  A    between atoms: _397  and  _398
REMARK  172  A    between atoms: _398  and  _399
REMARK  173  A    between atoms: _408  and  _410
REMARK  174  A    between atoms: _410  and  _411
REMARK  175  A    between atoms: _410  and  _413
REMARK  176  A    between atoms: _413  and  _414
REMARK  177  A    between atoms: _419  and  _421
REMARK  178  A    between atoms: _421  and  _422
REMARK  179  A    between atoms: _421  and  _424
REMARK  180  A    between atoms: _424  and  _425
REMARK  181  A    between atoms: _431  and  _433
REMARK  182  A    between atoms: _433  and  _434
REMARK  183  A    between atoms: _433  and  _436
REMARK  184  A    between atoms: _436  and  _437
REMARK  185  A    between atoms: _439  and  _441
REMARK  186  A    between atoms: _441  and  _442
REMARK  187  A    between atoms: _441  and  _444
REMARK  188  A    between atoms: _444  and  _445
REMARK  189  A    between atoms: _445  and  _446
REMARK  190  A    between atoms: _449  and  _451
REMARK  191  A    between atoms: _451  and  _452
REMARK  192  A    between atoms: _451  and  _454
REMARK  193  A    between atoms: _454  and  _455
REMARK  194  A    between atoms: _458  and  _460
REMARK  195  A    between atoms: _460  and  _461
REMARK  196  A    between atoms: _460  and  _463
REMARK  197  A    between atoms: _463  and  _464
REMARK  198  A    between atoms: _466  and  _468
REMARK  199  A    between atoms: _468  and  _469
REMARK  200  A    between atoms: _468  and  _471
REMARK  201  A    between atoms: _471  and  _472
REMARK  202  A    between atoms: _472  and  _473
REMARK  203  A    between atoms: _476  and  _478
REMARK  204  A    between atoms: _478  and  _479
REMARK  205  A    between atoms: _478  and  _481
REMARK  206  A    between atoms: _481  and  _482
REMARK  207  A    between atoms: _488  and  _490
REMARK  208  A    between atoms: _490  and  _491
REMARK  209  A    between atoms: _490  and  _493
REMARK  210  A    between atoms: _493  and  _494
REMARK  211  A    between atoms: _499  and  _500
REMARK  212  A    between atoms: _502  and  _504
REMARK  213  A    between atoms: _504  and  _505
REMARK  214  A    between atoms: _504  and  _507
REMARK  215  A    between atoms: _507  and  _508
REMARK  216  A    between atoms: _511  and  _513
REMARK  217  A    between atoms: _513  and  _514
REMARK  218  A    between atoms: _513  and  _516
REMARK  219  A    between atoms: _516  and  _517
REMARK  220  A    between atoms: _520  and  _522
REMARK  221  A    between atoms: _522  and  _523
REMARK  222  A    between atoms: _522  and  _525
REMARK  223  A    between atoms: _525  and  _526
REMARK  224  A    between atoms: _531  and  _533
REMARK  225  A    between atoms: _533  and  _534
REMARK  226  A    between atoms: _533  and  _536
REMARK                            x       y       z     vdW  Elec       q    Type
REMARK                         _______ _______ _______ _____ _____    ______ ____
ROOT
ATOM      1  CA  SER A   2      15.513  44.458  25.795  0.00  0.00    +0.178 C 
ENDROOT
BRANCH   1   4
ATOM      2  C   PHE A   1      13.252  43.569  25.598  0.00  0.00    +0.239 C 
ATOM      3  O   PHE A   1      13.479  42.645  26.370  0.00  0.00    -0.274 OA
ATOM      4  N   SER A   2      14.153  44.505  25.278  0.00  0.00    -0.295 N 
ATOM      5  H   SER A   2      13.876  45.283  24.646  0.00  0.00    +0.150 HD
BRANCH   2   6
ATOM      6  CA  PHE A   1      11.901  43.647  24.924  0.00  0.00    +0.149 C 
BRANCH   6   7
ATOM      7  N   PHE A   1      11.626  42.251  24.542  0.00  0.00    -0.238 NA
ATOM      8  H   PHE A   1      10.696  41.851  24.779  0.00  0.00    +0.142 HD
ENDBRANCH   6   7
BRANCH   6   9
ATOM      9  CB  PHE A   1      10.884  44.124  25.998  0.00  0.00    +0.053 C 
BRANCH   9  10
ATOM     10  CG  PHE A   1      11.045  45.607  26.404  0.00  0.00    -0.020 A 
ATOM     11  CD2 PHE A   1      11.362  45.948  27.703  0.00  0.00    -0.004 A 
ATOM     12  CE2 PHE A   1      11.435  47.338  28.060  0.00  0.00    -0.000 A 
ATOM     13  CZ  PHE A   1      11.283  48.373  27.076  0.00  0.00    -0.000 A 
ATOM     14  CE1 PHE A   1      10.977  48.042  25.779  0.00  0.00    -0.000 A 
ATOM     15  CD1 PHE A   1      10.822  46.673  25.453  0.00  0.00    -0.004 A 
ENDBRANCH   9  10
ENDBRANCH   6   9
ENDBRANCH   2   6
ENDBRANCH   1   4
BRANCH   1  16
ATOM     16  C   SER A   2      15.632  44.652  27.338  0.00  0.00    +0.243 C 
ATOM     17  N   GLU A   3      14.499  44.936  27.978  0.00  0.00    -0.302 N 
ATOM     18  H   GLU A   3      13.627  45.081  27.430  0.00  0.00    +0.150 HD
ATOM     19  O   SER A   2      16.715  44.471  27.926  0.00  0.00    -0.273 OA
BRANCH  17  20
ATOM     20  CA  GLU A   3      14.455  45.047  29.413  0.00  0.00    +0.105 C 
BRANCH  20  21
ATOM     21  C   GLU A   3      13.988  43.767  30.093  0.00  0.00    +0.201 C 
ATOM     22  O   GLU A   3      14.026  43.643  31.377  0.00  0.00    -0.219 OA
ENDBRANCH  20  21
BRANCH  20  23
ATOM     23  CB  GLU A   3      13.663  46.334  29.853  0.00  0.00    +0.034 C 
BRANCH  23  24
ATOM     24  CG  GLU A   3      14.624  47.673  30.014  0.00  0.00    +0.116 C 
BRANCH  24  25
ATOM     25  CD  GLU A   3      13.900  49.003  29.896  0.00  0.00    +0.365 C 
ATOM     26  OE2 GLU A   3      13.031  49.323  30.797  0.00  0.00    -0.246 OA
ATOM     27  OE1 GLU A   3      14.283  49.739  28.948  0.00  0.00    -0.246 OA
ENDBRANCH  24  25
ENDBRANCH  23  24
ENDBRANCH  20  23
ENDBRANCH  17  20
ENDBRANCH   1  16
BRANCH   1  28
ATOM     28  CB  SER A   2      16.426  45.387  24.977  0.00  0.00    +0.166 C 
BRANCH  28  29
ATOM     29  OG  SER A   2      16.535  44.742  23.681  0.00  0.00    -0.380 OA
ATOM     30  H   SER A   2      17.114  45.286  23.091  0.00  0.00    +0.211 HD
ENDBRANCH  28  29
ENDBRANCH   1  28
TORSDOF 13
REMARK  Name = ../refined-set-2016/1m0q/1m0q_pocket.pdb
REMARK  226 active torsions:
REMARK  status: ('A' for Active; 'I' for Inactive)
REMARK    1  A    between atoms: _1  and  _3
REMARK    2  A    between atoms: _3  and  _4
REMARK    3  A    between atoms: _3  and  _6
REMARK    4  A    between atoms: _6  and  _7
REMARK    5  A    between atoms: _10  and  _12
REMARK    6  A    between atoms: _12  and  _13
REMARK    7  A    between atoms: _15  and  _17
REMARK    8  A    between atoms: _17  and  _18
REMARK    9  A    between atoms: _17  and  _20
REMARK   10  A    between atoms: _20  and  _21
REMARK   11  A    between atoms: _21  and  _22
REMARK   12  A    between atoms: _27  and  _29
REMARK   13  A    between atoms: _29  and  _30
REMARK   14  A    between atoms: _29  and  _32
REMARK   15  A    between atoms: _32  and  _33
REMARK   16  A    between atoms: _33  and  _34
REMARK   17  A    between atoms: _36  and  _38
REMARK   18  A    between atoms: _38  and  _39
REMARK   19  A    between atoms: _38  and  _41
REMARK   20  A    between atoms: _41  and  _42
REMARK   21  A    between atoms: _44  and  _46
REMARK   22  A    between atoms: _46  and  _47
REMARK   23  A    between atoms: _46  and  _49
REMARK   24  A    between atoms: _49  and  _50
REMARK   25  A    between atoms: _52  and  _54
REMARK   26  A    between atoms: _54  and  _55
REMARK   27  A    between atoms: _54  and  _57
REMARK   28  A    between atoms: _57  and  _58
REMARK   29  A    between atoms: _61  and  _63
REMARK   30  A    between atoms: _63  and  _64
REMARK   31  A    between atoms: _66  and  _68
REMARK   32  A    between atoms: _68  and  _69
REMARK   33  A    between atoms: _72  and  _74
REMARK   34  A    between atoms: _74  and  _75
REMARK   35  A    between atoms: _74  and  _77
REMARK   36  A    between atoms: _77  and  _78
REMARK   37  A    between atoms: _78  and  _79
REMARK   38  A    between atoms: _82  and  _84
REMARK   39  A    between atoms: _84  and  _85
REMARK   40  A    between atoms: _84  and  _87
REMARK   41  A    between atoms: _87  and  _88
REMARK   42  A    between atoms: _90  and  _92
REMARK   43  A    between atoms: _92  and  _93
REMARK   44  A    between atoms: _92  and  _95
REMARK   45  A    between atoms: _95  and  _96
REMARK   46  A    between atoms: _101  and  _103
REMARK   47  A    between atoms: _103  and  _104
REMARK   48  A    between atoms: _103  and  _106
REMARK   49  A    between atoms: _106  and  _107
REMARK   50  A    between atoms: _107  and  _108
REMARK   51  A    between atoms: _111  and  _113
REMARK   52  A    between atoms: _113  and  _114
REMARK   53  A    between atoms: _113  and  _116
REMARK   54  A    between atoms: _116  and  _117
REMARK   55  A    between atoms: _119  and  _121
REMARK   56  A    between atoms: _121  and  _122
REMARK   57  A    between atoms: _121  and  _124
REMARK   58  A    between atoms: _124  and  _125
REMARK   59  A    between atoms: _135  and  _137
REMARK   60  A    between atoms: _137  and  _138
REMARK   61  A    between atoms: _137  and  _140
REMARK   62  A    between atoms: _140  and  _141
REMARK   63  A    between atoms: _146  and  _148
REMARK   64  A    between atoms: _148  and  _149
REMARK   65  A    between atoms: _151  and  _153
REMARK   66  A    between atoms: _153  and  _154
REMARK   67  A    between atoms: _153  and  _156
REMARK   68  A    between atoms: _156  and  _157
REMARK   69  A    between atoms: _157  and  _158
REMARK   70  A    between atoms: _160  and  _162
REMARK   71  A    between atoms: _162  and  _163
REMARK   72  A    between atoms: _162  and  _165
REMARK   73  A    between atoms: _165  and  _166
REMARK   74  A    between atoms: _169  and  _171
REMARK   75  A    between atoms: _171  and  _172
REMARK   76  A    between atoms: _175  and  _177
REMARK   77  A    between atoms: _177  and  _178
REMARK   78  A    between atoms: _177  and  _180
REMARK   79  A    between atoms: _180  and  _181
REMARK   80  A    between atoms: _184  and  _186
REMARK   81  A    between atoms: _186  and  _187
REMARK   82  A    between atoms: _186  and  _189
REMARK   83  A    between atoms: _189  and  _190
REMARK   84  A    between atoms: _193  and  _195
REMARK   85  A    between atoms: _195  and  _196
REMARK   86  A    between atoms: _199  and  _201
REMARK   87  A    between atoms: _201  and  _202
REMARK   88  A    between atoms: _201  and  _204
REMARK   89  A    between atoms: _204  and  _205
REMARK   90  A    between atoms: _205  and  _206
REMARK   91  A    between atoms: _210  and  _211
REMARK   92  A    between atoms: _216  and  _218
REMARK   93  A    between atoms: _218  and  _219
REMARK   94  A    between atoms: _218  and  _221
REMARK   95  A    between atoms: _221  and  _222
REMARK   96  A    between atoms: _225  and  _227
REMARK   97  A    between atoms: _227  and  _228
REMARK   98  A    between atoms: _227  and  _230
REMARK   99  A    between atoms: _230  and  _231
REMARK  100  A    between atoms: _234  and  _236
REMARK  101  A    between atoms: _236  and  _237
REMARK  102  A    between atoms: _236  and  _239
REMARK  103  A    between atoms: _239  and  _240
REMARK  104  A    between atoms: _242  and  _244
REMARK  105  A    between atoms: _244  and  _245
REMARK  106  A    between atoms: _244  and  _247
REMARK  107  A    between atoms: _247  and  _248
REMARK  108  A    between atoms: _250  and  _252
REMARK  109  A    between atoms: _252  and  _253
REMARK  110  A    between atoms: _255  and  _257
REMARK  111  A    between atoms: _257  and  _258
REMARK  112  A    between atoms: _260  and  _262
REMARK  113  A    between atoms: _262  and  _263
REMARK  114  A    between atoms: _262  and  _265
REMARK  115  A    between atoms: _265  and  _266
REMARK  116  A    between atoms: _269  and  _271
REMARK  117  A    between atoms: _271  and  _272
REMARK  118  A    between atoms: _271  and  _274
REMARK  119  A    between atoms: _274  and  _275
REMARK  120  A    between atoms: _275  and  _276
REMARK  121  A    between atoms: _279  and  _281
REMARK  122  A    between atoms: _281  and  _282
REMARK  123  A    between atoms: _285  and  _287
REMARK  124  A    between atoms: _287  and  _288
REMARK  125  A    between atoms: _287  and  _290
REMARK  126  A    between atoms: _290  and  _291
REMARK  127  A    between atoms: _291  and  _292
REMARK  128  A    between atoms: _297  and  _299
REMARK  129  A    between atoms: _299  and  _300
REMARK  130  A    between atoms: _299  and  _302
REMARK  131  A    between atoms: _302  and  _303
REMARK  132  A    between atoms: _306  and  _308
REMARK  133  A    between atoms: _308  and  _309
REMARK  134  A    between atoms: _311  and  _313
REMARK  135  A    between atoms: _313  and  _314
REMARK  136  A    between atoms: _313  and  _316
REMARK  137  A    between atoms: _316  and  _317
REMARK  138  A    between atoms: _320  and  _322
REMARK  139  A    between atoms: _322  and  _323
REMARK  140  A    between atoms: _322  and  _325
REMARK  141  A    between atoms: _325  and  _326
REMARK  142  A    between atoms: _329  and  _331
REMARK  143  A    between atoms: _331  and  _332
REMARK  144  A    between atoms: _331  and  _334
REMARK  145  A    between atoms: _334  and  _335
REMARK  146  A    between atoms: _337  and  _339
REMARK  147  A    between atoms: _339  and  _340
REMARK  148  A    between atoms: _339  and  _342
REMARK  149  A    between atoms: _342  and  _343
REMARK  150  A    between atoms: _343  and  _344
REMARK  151  A    between atoms: _344  and  _345
REMARK  152  A    between atoms: _345  and  _346
REMARK  153  A    between atoms: _351  and  _352
REMARK  154  A    between atoms: _357  and  _359
REMARK  155  A    between atoms: _359  and  _360
REMARK  156  A    between atoms: _359  and  _362
REMARK  157  A    between atoms: _362  and  _363
REMARK  158  A    between atoms: _366  and  _368
REMARK  159  A    between atoms: _368  and  _369
REMARK  160  A    between atoms: _372  and  _374
REMARK  161  A    between atoms: _374  and  _375
REMARK  162  A    between atoms: _374  and  _377
REMARK  163  A    between atoms: _377  and  _378
REMARK  164  A    between atoms: _383  and  _385
REMARK  165  A    between atoms: _385  and  _386
REMARK  166  A    between atoms: _385  and  _388
REMARK  167  A    between atoms: _391  and  _393
REMARK  168  A    between atoms: _393  and  _394
REMARK  169  A    between atoms: _393  and  _396
REMARK  170  A    between atoms: _396  and  _397
REMARK  171  A    between atoms: _397  and  _398
REMARK  172  A    between atoms: _398  and  _399
REMARK  173  A    between atoms: _408  and  _410
REMARK  174  A    between atoms: _410  and  _411
REMARK  175  A    between atoms: _410  and  _413
REMARK  176  A    between atoms: _413  and  _414
REMARK  177  A    between atoms: _419  and  _421
REMARK  178  A    between atoms: _421  and  _422
REMARK  179  A    between atoms: _421  and  _424
REMARK  180  A    between atoms: _424  and  _425
REMARK  181  A    between atoms: _431  and  _433
REMARK  182  A    between atoms: _433  and  _434
REMARK  183  A    between atoms: _433  and  _436
REMARK  184  A    between atoms: _436  and  _437
REMARK  185  A    between atoms: _439  and  _441
REMARK  186  A    between atoms: _441  and  _442
REMARK  187  A    between atoms: _441  and  _444
REMARK  188  A    between atoms: _444  and  _445
REMARK  189  A    between atoms: _445  and  _446
REMARK  190  A    between atoms: _449  and  _451
REMARK  191  A    between atoms: _451  and  _452
REMARK  192  A    between atoms: _451  and  _454
REMARK  193  A    between atoms: _454  and  _455
REMARK  194  A    between atoms: _458  and  _460
REMARK  195  A    between atoms: _460  and  _461
REMARK  196  A    between atoms: _460  and  _463
REMARK  197  A    between atoms: _463  and  _464
REMARK  198  A    between atoms: _466  and  _468
REMARK  199  A    between atoms: _468  and  _469
REMARK  200  A    between atoms: _468  and  _471
REMARK  201  A    between atoms: _471  and  _472
REMARK  202  A    between atoms: _472  and  _473
REMARK  203  A    between atoms: _476  and  _478
REMARK  204  A    between atoms: _478  and  _479
REMARK  205  A    between atoms: _478  and  _481
REMARK  206  A    between atoms: _481  and  _482
REMARK  207  A    between atoms: _488  and  _490
REMARK  208  A    between atoms: _490  and  _491
REMARK  209  A    between atoms: _490  and  _493
REMARK  210  A    between atoms: _493  and  _494
REMARK  211  A    between atoms: _499  and  _500
REMARK  212  A    between atoms: _502  and  _504
REMARK  213  A    between atoms: _504  and  _505
REMARK  214  A    between atoms: _504  and  _507
REMARK  215  A    between atoms: _507  and  _508
REMARK  216  A    between atoms: _511  and  _513
REMARK  217  A    between atoms: _513  and  _514
REMARK  218  A    between atoms: _513  and  _516
REMARK  219  A    between atoms: _516  and  _517
REMARK  220  A    between atoms: _520  and  _522
REMARK  221  A    between atoms: _522  and  _523
REMARK  222  A    between atoms: _522  and  _525
REMARK  223  A    between atoms: _525  and  _526
REMARK  224  A    between atoms: _531  and  _533
REMARK  225  A    between atoms: _533  and  _534
REMARK  226  A    between atoms: _533  and  _536
REMARK                            x       y       z     vdW  Elec       q    Type
REMARK                         _______ _______ _______ _____ _____    ______ ____
ROOT
ATOM      1  C   LEU A   1      24.875  40.400  20.035  0.00  0.00    +0.238 C 
ATOM      2  O   LEU A   1      24.587  39.185  20.170  0.00  0.00    -0.274 OA
ATOM      3  N   SER A   2      25.127  40.987  18.834  0.00  0.00    -0.296 N 
ATOM      4  H   SER A   2      25.464  41.971  18.812  0.00  0.00    +0.150 HD
ENDROOT
BRANCH   1   5
ATOM      5  CA  LEU A   1      24.985  41.273  21.232  0.00  0.00    +0.145 C 
BRANCH   5   6
ATOM      6  N   LEU A   1      25.320  40.523  22.454  0.00  0.00    -0.238 NA
ATOM      7  H   LEU A   1      26.241  40.042  22.491  0.00  0.00    +0.142 HD
ENDBRANCH   5   6
BRANCH   5   8
ATOM      8  CB  LEU A   1      26.079  42.336  21.029  0.00  0.00    +0.026 C 
BRANCH   8   9
ATOM      9  CG  LEU A   1      26.195  43.266  22.267  0.00  0.00    +0.002 C 
ATOM     10  CD2 LEU A   1      24.992  44.176  22.499  0.00  0.00    +0.000 C 
ATOM     11  CD1 LEU A   1      27.436  44.163  22.156  0.00  0.00    +0.000 C 
ENDBRANCH   8   9
ENDBRANCH   5   8
ENDBRANCH   1   5
BRANCH   3  12
ATOM     12  CA  SER A   2      24.932  40.255  17.543  0.00  0.00    +0.166 C 
BRANCH  12  13
ATOM     13  C   SER A   2      26.078  40.101  16.615  0.00  0.00    +0.229 C 
ATOM     14  O   SER A   2      26.268  39.010  16.051  0.00  0.00    -0.286 OA
ENDBRANCH  12  13
BRANCH  12  15
ATOM     15  CB  SER A   2      23.753  40.815  16.777  0.00  0.00    +0.165 C 
BRANCH  15  16
ATOM     16  OG  SER A   2      22.611  40.945  17.647  0.00  0.00    -0.380 OA
ATOM     17  H   SER A   2      22.370  40.055  18.009  0.00  0.00    +0.211 HD
ENDBRANCH  15  16
ENDBRANCH  12  15
ENDBRANCH   3  12
TORSDOF 8
REMARK  Name = ../refined-set-2016/1m0q/1m0q_pocket.pdb
REMARK  226 active torsions:
REMARK  status: ('A' for Active; 'I' for Inactive)
REMARK    1  A    between atoms: _1  and  _3
REMARK    2  A    between atoms: _3  and  _4
REMARK    3  A    between atoms: _3  and  _6
REMARK    4  A    between atoms: _6  and  _7
REMARK    5  A    between atoms: _10  and  _12
REMARK    6  A    between atoms: _12  and  _13
REMARK    7  A    between atoms: _15  and  _17
REMARK    8  A    between atoms: _17  and  _18
REMARK    9  A    between atoms: _17  and  _20
REMARK   10  A    between atoms: _20  and  _21
REMARK   11  A    between atoms: _21  and  _22
REMARK   12  A    between atoms: _27  and  _29
REMARK   13  A    between atoms: _29  and  _30
REMARK   14  A    between atoms: _29  and  _32
REMARK   15  A    between atoms: _32  and  _33
REMARK   16  A    between atoms: _33  and  _34
REMARK   17  A    between atoms: _36  and  _38
REMARK   18  A    between atoms: _38  and  _39
REMARK   19  A    between atoms: _38  and  _41
REMARK   20  A    between atoms: _41  and  _42
REMARK   21  A    between atoms: _44  and  _46
REMARK   22  A    between atoms: _46  and  _47
REMARK   23  A    between atoms: _46  and  _49
REMARK   24  A    between atoms: _49  and  _50
REMARK   25  A    between atoms: _52  and  _54
REMARK   26  A    between atoms: _54  and  _55
REMARK   27  A    between atoms: _54  and  _57
REMARK   28  A    between atoms: _57  and  _58
REMARK   29  A    between atoms: _61  and  _63
REMARK   30  A    between atoms: _63  and  _64
REMARK   31  A    between atoms: _66  and  _68
REMARK   32  A    between atoms: _68  and  _69
REMARK   33  A    between atoms: _72  and  _74
REMARK   34  A    between atoms: _74  and  _75
REMARK   35  A    between atoms: _74  and  _77
REMARK   36  A    between atoms: _77  and  _78
REMARK   37  A    between atoms: _78  and  _79
REMARK   38  A    between atoms: _82  and  _84
REMARK   39  A    between atoms: _84  and  _85
REMARK   40  A    between atoms: _84  and  _87
REMARK   41  A    between atoms: _87  and  _88
REMARK   42  A    between atoms: _90  and  _92
REMARK   43  A    between atoms: _92  and  _93
REMARK   44  A    between atoms: _92  and  _95
REMARK   45  A    between atoms: _95  and  _96
REMARK   46  A    between atoms: _101  and  _103
REMARK   47  A    between atoms: _103  and  _104
REMARK   48  A    between atoms: _103  and  _106
REMARK   49  A    between atoms: _106  and  _107
REMARK   50  A    between atoms: _107  and  _108
REMARK   51  A    between atoms: _111  and  _113
REMARK   52  A    between atoms: _113  and  _114
REMARK   53  A    between atoms: _113  and  _116
REMARK   54  A    between atoms: _116  and  _117
REMARK   55  A    between atoms: _119  and  _121
REMARK   56  A    between atoms: _121  and  _122
REMARK   57  A    between atoms: _121  and  _124
REMARK   58  A    between atoms: _124  and  _125
REMARK   59  A    between atoms: _135  and  _137
REMARK   60  A    between atoms: _137  and  _138
REMARK   61  A    between atoms: _137  and  _140
REMARK   62  A    between atoms: _140  and  _141
REMARK   63  A    between atoms: _146  and  _148
REMARK   64  A    between atoms: _148  and  _149
REMARK   65  A    between atoms: _151  and  _153
REMARK   66  A    between atoms: _153  and  _154
REMARK   67  A    between atoms: _153  and  _156
REMARK   68  A    between atoms: _156  and  _157
REMARK   69  A    between atoms: _157  and  _158
REMARK   70  A    between atoms: _160  and  _162
REMARK   71  A    between atoms: _162  and  _163
REMARK   72  A    between atoms: _162  and  _165
REMARK   73  A    between atoms: _165  and  _166
REMARK   74  A    between atoms: _169  and  _171
REMARK   75  A    between atoms: _171  and  _172
REMARK   76  A    between atoms: _175  and  _177
REMARK   77  A    between atoms: _177  and  _178
REMARK   78  A    between atoms: _177  and  _180
REMARK   79  A    between atoms: _180  and  _181
REMARK   80  A    between atoms: _184  and  _186
REMARK   81  A    between atoms: _186  and  _187
REMARK   82  A    between atoms: _186  and  _189
REMARK   83  A    between atoms: _189  and  _190
REMARK   84  A    between atoms: _193  and  _195
REMARK   85  A    between atoms: _195  and  _196
REMARK   86  A    between atoms: _199  and  _201
REMARK   87  A    between atoms: _201  and  _202
REMARK   88  A    between atoms: _201  and  _204
REMARK   89  A    between atoms: _204  and  _205
REMARK   90  A    between atoms: _205  and  _206
REMARK   91  A    between atoms: _210  and  _211
REMARK   92  A    between atoms: _216  and  _218
REMARK   93  A    between atoms: _218  and  _219
REMARK   94  A    between atoms: _218  and  _221
REMARK   95  A    between atoms: _221  and  _222
REMARK   96  A    between atoms: _225  and  _227
REMARK   97  A    between atoms: _227  and  _228
REMARK   98  A    between atoms: _227  and  _230
REMARK   99  A    between atoms: _230  and  _231
REMARK  100  A    between atoms: _234  and  _236
REMARK  101  A    between atoms: _236  and  _237
REMARK  102  A    between atoms: _236  and  _239
REMARK  103  A    between atoms: _239  and  _240
REMARK  104  A    between atoms: _242  and  _244
REMARK  105  A    between atoms: _244  and  _245
REMARK  106  A    between atoms: _244  and  _247
REMARK  107  A    between atoms: _247  and  _248
REMARK  108  A    between atoms: _250  and  _252
REMARK  109  A    between atoms: _252  and  _253
REMARK  110  A    between atoms: _255  and  _257
REMARK  111  A    between atoms: _257  and  _258
REMARK  112  A    between atoms: _260  and  _262
REMARK  113  A    between atoms: _262  and  _263
REMARK  114  A    between atoms: _262  and  _265
REMARK  115  A    between atoms: _265  and  _266
REMARK  116  A    between atoms: _269  and  _271
REMARK  117  A    between atoms: _271  and  _272
REMARK  118  A    between atoms: _271  and  _274
REMARK  119  A    between atoms: _274  and  _275
REMARK  120  A    between atoms: _275  and  _276
REMARK  121  A    between atoms: _279  and  _281
REMARK  122  A    between atoms: _281  and  _282
REMARK  123  A    between atoms: _285  and  _287
REMARK  124  A    between atoms: _287  and  _288
REMARK  125  A    between atoms: _287  and  _290
REMARK  126  A    between atoms: _290  and  _291
REMARK  127  A    between atoms: _291  and  _292
REMARK  128  A    between atoms: _297  and  _299
REMARK  129  A    between atoms: _299  and  _300
REMARK  130  A    between atoms: _299  and  _302
REMARK  131  A    between atoms: _302  and  _303
REMARK  132  A    between atoms: _306  and  _308
REMARK  133  A    between atoms: _308  and  _309
REMARK  134  A    between atoms: _311  and  _313
REMARK  135  A    between atoms: _313  and  _314
REMARK  136  A    between atoms: _313  and  _316
REMARK  137  A    between atoms: _316  and  _317
REMARK  138  A    between atoms: _320  and  _322
REMARK  139  A    between atoms: _322  and  _323
REMARK  140  A    between atoms: _322  and  _325
REMARK  141  A    between atoms: _325  and  _326
REMARK  142  A    between atoms: _329  and  _331
REMARK  143  A    between atoms: _331  and  _332
REMARK  144  A    between atoms: _331  and  _334
REMARK  145  A    between atoms: _334  and  _335
REMARK  146  A    between atoms: _337  and  _339
REMARK  147  A    between atoms: _339  and  _340
REMARK  148  A    between atoms: _339  and  _342
REMARK  149  A    between atoms: _342  and  _343
REMARK  150  A    between atoms: _343  and  _344
REMARK  151  A    between atoms: _344  and  _345
REMARK  152  A    between atoms: _345  and  _346
REMARK  153  A    between atoms: _351  and  _352
REMARK  154  A    between atoms: _357  and  _359
REMARK  155  A    between atoms: _359  and  _360
REMARK  156  A    between atoms: _359  and  _362
REMARK  157  A    between atoms: _362  and  _363
REMARK  158  A    between atoms: _366  and  _368
REMARK  159  A    between atoms: _368  and  _369
REMARK  160  A    between atoms: _372  and  _374
REMARK  161  A    between atoms: _374  and  _375
REMARK  162  A    between atoms: _374  and  _377
REMARK  163  A    between atoms: _377  and  _378
REMARK  164  A    between atoms: _383  and  _385
REMARK  165  A    between atoms: _385  and  _386
REMARK  166  A    between atoms: _385  and  _388
REMARK  167  A    between atoms: _391  and  _393
REMARK  168  A    between atoms: _393  and  _394
REMARK  169  A    between atoms: _393  and  _396
REMARK  170  A    between atoms: _396  and  _397
REMARK  171  A    between atoms: _397  and  _398
REMARK  172  A    between atoms: _398  and  _399
REMARK  173  A    between atoms: _408  and  _410
REMARK  174  A    between atoms: _410  and  _411
REMARK  175  A    between atoms: _410  and  _413
REMARK  176  A    between atoms: _413  and  _414
REMARK  177  A    between atoms: _419  and  _421
REMARK  178  A    between atoms: _421  and  _422
REMARK  179  A    between atoms: _421  and  _424
REMARK  180  A    between atoms: _424  and  _425
REMARK  181  A    between atoms: _431  and  _433
REMARK  182  A    between atoms: _433  and  _434
REMARK  183  A    between atoms: _433  and  _436
REMARK  184  A    between atoms: _436  and  _437
REMARK  185  A    between atoms: _439  and  _441
REMARK  186  A    between atoms: _441  and  _442
REMARK  187  A    between atoms: _441  and  _444
REMARK  188  A    between atoms: _444  and  _445
REMARK  189  A    between atoms: _445  and  _446
REMARK  190  A    between atoms: _449  and  _451
REMARK  191  A    between atoms: _451  and  _452
REMARK  192  A    between atoms: _451  and  _454
REMARK  193  A    between atoms: _454  and  _455
REMARK  194  A    between atoms: _458  and  _460
REMARK  195  A    between atoms: _460  and  _461
REMARK  196  A    between atoms: _460  and  _463
REMARK  197  A    between atoms: _463  and  _464
REMARK  198  A    between atoms: _466  and  _468
REMARK  199  A    between atoms: _468  and  _469
REMARK  200  A    between atoms: _468  and  _471
REMARK  201  A    between atoms: _471  and  _472
REMARK  202  A    between atoms: _472  and  _473
REMARK  203  A    between atoms: _476  and  _478
REMARK  204  A    between atoms: _478  and  _479
REMARK  205  A    between atoms: _478  and  _481
REMARK  206  A    between atoms: _481  and  _482
REMARK  207  A    between atoms: _488  and  _490
REMARK  208  A    between atoms: _490  and  _491
REMARK  209  A    between atoms: _490  and  _493
REMARK  210  A    between atoms: _493  and  _494
REMARK  211  A    between atoms: _499  and  _500
REMARK  212  A    between atoms: _502  and  _504
REMARK  213  A    between atoms: _504  and  _505
REMARK  214  A    between atoms: _504  and  _507
REMARK  215  A    between atoms: _507  and  _508
REMARK  216  A    between atoms: _511  and  _513
REMARK  217  A    between atoms: _513  and  _514
REMARK  218  A    between atoms: _513  and  _516
REMARK  219  A    between atoms: _516  and  _517
REMARK  220  A    between atoms: _520  and  _522
REMARK  221  A    between atoms: _522  and  _523
REMARK  222  A    between atoms: _522  and  _525
REMARK  223  A    between atoms: _525  and  _526
REMARK  224  A    between atoms: _531  and  _533
REMARK  225  A    between atoms: _533  and  _534
REMARK  226  A    between atoms: _533  and  _536
REMARK                            x       y       z     vdW  Elec       q    Type
REMARK                         _______ _______ _______ _____ _____    ______ ____
ROOT
ATOM      1  CA  GLU A   1      29.100  45.590  17.382  0.00  0.00    +0.134 C 
ENDROOT
BRANCH   1   2
ATOM      2  N   GLU A   1      29.938  45.038  16.326  0.00  0.00    -0.239 NA
ATOM      3  H   GLU A   1      29.553  44.313  15.687  0.00  0.00    +0.142 HD
ENDBRANCH   1   2
BRANCH   1   4
ATOM      4  C   GLU A   1      29.774  45.342  18.726  0.00  0.00    +0.224 C 
ATOM      5  O   GLU A   1      29.853  46.199  19.508  0.00  0.00    -0.287 OA
ENDBRANCH   1   4
BRANCH   1   6
ATOM      6  CB  GLU A   1      27.844  44.794  17.394  0.00  0.00    +0.037 C 
BRANCH   6   7
ATOM      7  CG  GLU A   1      26.689  45.512  17.991  0.00  0.00    +0.116 C 
BRANCH   7   8
ATOM      8  CD  GLU A   1      25.413  44.623  18.081  0.00  0.00    +0.365 C 
ATOM      9  OE2 GLU A   1      24.334  45.194  18.295  0.00  0.00    -0.246 OA
ATOM     10  OE1 GLU A   1      25.517  43.379  17.933  0.00  0.00    -0.246 OA
ENDBRANCH   7   8
ENDBRANCH   6   7
ENDBRANCH   1   6
TORSDOF 5
REMARK  Name = ../refined-set-2016/1m0q/1m0q_pocket.pdb
REMARK  226 active torsions:
REMARK  status: ('A' for Active; 'I' for Inactive)
REMARK    1  A    between atoms: _1  and  _3
REMARK    2  A    between atoms: _3  and  _4
REMARK    3  A    between atoms: _3  and  _6
REMARK    4  A    between atoms: _6  and  _7
REMARK    5  A    between atoms: _10  and  _12
REMARK    6  A    between atoms: _12  and  _13
REMARK    7  A    between atoms: _15  and  _17
REMARK    8  A    between atoms: _17  and  _18
REMARK    9  A    between atoms: _17  and  _20
REMARK   10  A    between atoms: _20  and  _21
REMARK   11  A    between atoms: _21  and  _22
REMARK   12  A    between atoms: _27  and  _29
REMARK   13  A    between atoms: _29  and  _30
REMARK   14  A    between atoms: _29  and  _32
REMARK   15  A    between atoms: _32  and  _33
REMARK   16  A    between atoms: _33  and  _34
REMARK   17  A    between atoms: _36  and  _38
REMARK   18  A    between atoms: _38  and  _39
REMARK   19  A    between atoms: _38  and  _41
REMARK   20  A    between atoms: _41  and  _42
REMARK   21  A    between atoms: _44  and  _46
REMARK   22  A    between atoms: _46  and  _47
REMARK   23  A    between atoms: _46  and  _49
REMARK   24  A    between atoms: _49  and  _50
REMARK   25  A    between atoms: _52  and  _54
REMARK   26  A    between atoms: _54  and  _55
REMARK   27  A    between atoms: _54  and  _57
REMARK   28  A    between atoms: _57  and  _58
REMARK   29  A    between atoms: _61  and  _63
REMARK   30  A    between atoms: _63  and  _64
REMARK   31  A    between atoms: _66  and  _68
REMARK   32  A    between atoms: _68  and  _69
REMARK   33  A    between atoms: _72  and  _74
REMARK   34  A    between atoms: _74  and  _75
REMARK   35  A    between atoms: _74  and  _77
REMARK   36  A    between atoms: _77  and  _78
REMARK   37  A    between atoms: _78  and  _79
REMARK   38  A    between atoms: _82  and  _84
REMARK   39  A    between atoms: _84  and  _85
REMARK   40  A    between atoms: _84  and  _87
REMARK   41  A    between atoms: _87  and  _88
REMARK   42  A    between atoms: _90  and  _92
REMARK   43  A    between atoms: _92  and  _93
REMARK   44  A    between atoms: _92  and  _95
REMARK   45  A    between atoms: _95  and  _96
REMARK   46  A    between atoms: _101  and  _103
REMARK   47  A    between atoms: _103  and  _104
REMARK   48  A    between atoms: _103  and  _106
REMARK   49  A    between atoms: _106  and  _107
REMARK   50  A    between atoms: _107  and  _108
REMARK   51  A    between atoms: _111  and  _113
REMARK   52  A    between atoms: _113  and  _114
REMARK   53  A    between atoms: _113  and  _116
REMARK   54  A    between atoms: _116  and  _117
REMARK   55  A    between atoms: _119  and  _121
REMARK   56  A    between atoms: _121  and  _122
REMARK   57  A    between atoms: _121  and  _124
REMARK   58  A    between atoms: _124  and  _125
REMARK   59  A    between atoms: _135  and  _137
REMARK   60  A    between atoms: _137  and  _138
REMARK   61  A    between atoms: _137  and  _140
REMARK   62  A    between atoms: _140  and  _141
REMARK   63  A    between atoms: _146  and  _148
REMARK   64  A    between atoms: _148  and  _149
REMARK   65  A    between atoms: _151  and  _153
REMARK   66  A    between atoms: _153  and  _154
REMARK   67  A    between atoms: _153  and  _156
REMARK   68  A    between atoms: _156  and  _157
REMARK   69  A    between atoms: _157  and  _158
REMARK   70  A    between atoms: _160  and  _162
REMARK   71  A    between atoms: _162  and  _163
REMARK   72  A    between atoms: _162  and  _165
REMARK   73  A    between atoms: _165  and  _166
REMARK   74  A    between atoms: _169  and  _171
REMARK   75  A    between atoms: _171  and  _172
REMARK   76  A    between atoms: _175  and  _177
REMARK   77  A    between atoms: _177  and  _178
REMARK   78  A    between atoms: _177  and  _180
REMARK   79  A    between atoms: _180  and  _181
REMARK   80  A    between atoms: _184  and  _186
REMARK   81  A    between atoms: _186  and  _187
REMARK   82  A    between atoms: _186  and  _189
REMARK   83  A    between atoms: _189  and  _190
REMARK   84  A    between atoms: _193  and  _195
REMARK   85  A    between atoms: _195  and  _196
REMARK   86  A    between atoms: _199  and  _201
REMARK   87  A    between atoms: _201  and  _202
REMARK   88  A    between atoms: _201  and  _204
REMARK   89  A    between atoms: _204  and  _205
REMARK   90  A    between atoms: _205  and  _206
REMARK   91  A    between atoms: _210  and  _211
REMARK   92  A    between atoms: _216  and  _218
REMARK   93  A    between atoms: _218  and  _219
REMARK   94  A    between atoms: _218  and  _221
REMARK   95  A    between atoms: _221  and  _222
REMARK   96  A    between atoms: _225  and  _227
REMARK   97  A    between atoms: _227  and  _228
REMARK   98  A    between atoms: _227  and  _230
REMARK   99  A    between atoms: _230  and  _231
REMARK  100  A    between atoms: _234  and  _236
REMARK  101  A    between atoms: _236  and  _237
REMARK  102  A    between atoms: _236  and  _239
REMARK  103  A    between atoms: _239  and  _240
REMARK  104  A    between atoms: _242  and  _244
REMARK  105  A    between atoms: _244  and  _245
REMARK  106  A    between atoms: _244  and  _247
REMARK  107  A    between atoms: _247  and  _248
REMARK  108  A    between atoms: _250  and  _252
REMARK  109  A    between atoms: _252  and  _253
REMARK  110  A    between atoms: _255  and  _257
REMARK  111  A    between atoms: _257  and  _258
REMARK  112  A    between atoms: _260  and  _262
REMARK  113  A    between atoms: _262  and  _263
REMARK  114  A    between atoms: _262  and  _265
REMARK  115  A    between atoms: _265  and  _266
REMARK  116  A    between atoms: _269  and  _271
REMARK  117  A    between atoms: _271  and  _272
REMARK  118  A    between atoms: _271  and  _274
REMARK  119  A    between atoms: _274  and  _275
REMARK  120  A    between atoms: _275  and  _276
REMARK  121  A    between atoms: _279  and  _281
REMARK  122  A    between atoms: _281  and  _282
REMARK  123  A    between atoms: _285  and  _287
REMARK  124  A    between atoms: _287  and  _288
REMARK  125  A    between atoms: _287  and  _290
REMARK  126  A    between atoms: _290  and  _291
REMARK  127  A    between atoms: _291  and  _292
REMARK  128  A    between atoms: _297  and  _299
REMARK  129  A    between atoms: _299  and  _300
REMARK  130  A    between atoms: _299  and  _302
REMARK  131  A    between atoms: _302  and  _303
REMARK  132  A    between atoms: _306  and  _308
REMARK  133  A    between atoms: _308  and  _309
REMARK  134  A    between atoms: _311  and  _313
REMARK  135  A    between atoms: _313  and  _314
REMARK  136  A    between atoms: _313  and  _316
REMARK  137  A    between atoms: _316  and  _317
REMARK  138  A    between atoms: _320  and  _322
REMARK  139  A    between atoms: _322  and  _323
REMARK  140  A    between atoms: _322  and  _325
REMARK  141  A    between atoms: _325  and  _326
REMARK  142  A    between atoms: _329  and  _331
REMARK  143  A    between atoms: _331  and  _332
REMARK  144  A    between atoms: _331  and  _334
REMARK  145  A    between atoms: _334  and  _335
REMARK  146  A    between atoms: _337  and  _339
REMARK  147  A    between atoms: _339  and  _340
REMARK  148  A    between atoms: _339  and  _342
REMARK  149  A    between atoms: _342  and  _343
REMARK  150  A    between atoms: _343  and  _344
REMARK  151  A    between atoms: _344  and  _345
REMARK  152  A    between atoms: _345  and  _346
REMARK  153  A    between atoms: _351  and  _352
REMARK  154  A    between atoms: _357  and  _359
REMARK  155  A    between atoms: _359  and  _360
REMARK  156  A    between atoms: _359  and  _362
REMARK  157  A    between atoms: _362  and  _363
REMARK  158  A    between atoms: _366  and  _368
REMARK  159  A    between atoms: _368  and  _369
REMARK  160  A    between atoms: _372  and  _374
REMARK  161  A    between atoms: _374  and  _375
REMARK  162  A    between atoms: _374  and  _377
REMARK  163  A    between atoms: _377  and  _378
REMARK  164  A    between atoms: _383  and  _385
REMARK  165  A    between atoms: _385  and  _386
REMARK  166  A    between atoms: _385  and  _388
REMARK  167  A    between atoms: _391  and  _393
REMARK  168  A    between atoms: _393  and  _394
REMARK  169  A    between atoms: _393  and  _396
REMARK  170  A    between atoms: _396  and  _397
REMARK  171  A    between atoms: _397  and  _398
REMARK  172  A    between atoms: _398  and  _399
REMARK  173  A    between atoms: _408  and  _410
REMARK  174  A    between atoms: _410  and  _411
REMARK  175  A    between atoms: _410  and  _413
REMARK  176  A    between atoms: _413  and  _414
REMARK  177  A    between atoms: _419  and  _421
REMARK  178  A    between atoms: _421  and  _422
REMARK  179  A    between atoms: _421  and  _424
REMARK  180  A    between atoms: _424  and  _425
REMARK  181  A    between atoms: _431  and  _433
REMARK  182  A    between atoms: _433  and  _434
REMARK  183  A    between atoms: _433  and  _436
REMARK  184  A    between atoms: _436  and  _437
REMARK  185  A    between atoms: _439  and  _441
REMARK  186  A    between atoms: _441  and  _442
REMARK  187  A    between atoms: _441  and  _444
REMARK  188  A    between atoms: _444  and  _445
REMARK  189  A    between atoms: _445  and  _446
REMARK  190  A    between atoms: _449  and  _451
REMARK  191  A    between atoms: _451  and  _452
REMARK  192  A    between atoms: _451  and  _454
REMARK  193  A    between atoms: _454  and  _455
REMARK  194  A    between atoms: _458  and  _460
REMARK  195  A    between atoms: _460  and  _461
REMARK  196  A    between atoms: _460  and  _463
REMARK  197  A    between atoms: _463  and  _464
REMARK  198  A    between atoms: _466  and  _468
REMARK  199  A    between atoms: _468  and  _469
REMARK  200  A    between atoms: _468  and  _471
REMARK  201  A    between atoms: _471  and  _472
REMARK  202  A    between atoms: _472  and  _473
REMARK  203  A    between atoms: _476  and  _478
REMARK  204  A    between atoms: _478  and  _479
REMARK  205  A    between atoms: _478  and  _481
REMARK  206  A    between atoms: _481  and  _482
REMARK  207  A    between atoms: _488  and  _490
REMARK  208  A    between atoms: _490  and  _491
REMARK  209  A    between atoms: _490  and  _493
REMARK  210  A    between atoms: _493  and  _494
REMARK  211  A    between atoms: _499  and  _500
REMARK  212  A    between atoms: _502  and  _504
REMARK  213  A    between atoms: _504  and  _505
REMARK  214  A    between atoms: _504  and  _507
REMARK  215  A    between atoms: _507  and  _508
REMARK  216  A    between atoms: _511  and  _513
REMARK  217  A    between atoms: _513  and  _514
REMARK  218  A    between atoms: _513  and  _516
REMARK  219  A    between atoms: _516  and  _517
REMARK  220  A    between atoms: _520  and  _522
REMARK  221  A    between atoms: _522  and  _523
REMARK  222  A    between atoms: _522  and  _525
REMARK  223  A    between atoms: _525  and  _526
REMARK  224  A    between atoms: _531  and  _533
REMARK  225  A    between atoms: _533  and  _534
REMARK  226  A    between atoms: _533  and  _536
REMARK                            x       y       z     vdW  Elec       q    Type
REMARK                         _______ _______ _______ _____ _____    ______ ____
ROOT
ATOM      1  CA  THR A   3      19.962  47.407  20.934  0.00  0.00    +0.176 C 
ENDROOT
BRANCH   1   2
ATOM      2  C   THR A   3      18.753  46.565  20.851  0.00  0.00    +0.243 C 
ATOM      3  O   THR A   3      18.130  46.244  21.857  0.00  0.00    -0.273 OA
ATOM      4  N   THR A   4      18.425  46.149  19.662  0.00  0.00    -0.295 N 
ATOM      5  H   THR A   4      19.022  46.395  18.847  0.00  0.00    +0.150 HD
BRANCH   4   6
ATOM      6  CA  THR A   4      17.218  45.334  19.462  0.00  0.00    +0.176 C 
BRANCH   6   7
ATOM      7  C   THR A   4      17.462  43.948  19.986  0.00  0.00    +0.243 C 
ATOM      8  O   THR A   4      16.618  43.349  20.625  0.00  0.00    -0.273 OA
ATOM      9  N   HIS A   5      18.584  43.374  19.629  0.00  0.00    -0.297 N 
ATOM     10  H   HIS A   5      19.320  43.890  19.107  0.00  0.00    +0.150 HD
BRANCH   9  11
ATOM     11  CA  HIS A   5      18.743  42.014  19.991  0.00  0.00    +0.155 C 
BRANCH  11  12
ATOM     12  C   HIS A   5      19.631  41.722  21.188  0.00  0.00    +0.241 C 
ATOM     13  N   VAL A   6      20.118  42.762  21.868  0.00  0.00    -0.302 N 
ATOM     14  H   VAL A   6      19.917  43.730  21.546  0.00  0.00    +0.150 HD
ATOM     15  O   HIS A   5      19.969  40.556  21.395  0.00  0.00    -0.273 OA
BRANCH  13  16
ATOM     16  CA  VAL A   6      20.933  42.548  23.065  0.00  0.00    +0.104 C 
BRANCH  16  17
ATOM     17  CB  VAL A   6      21.224  43.912  23.842  0.00  0.00    +0.021 C 
ATOM     18  CG2 VAL A   6      22.160  43.648  25.140  0.00  0.00    +0.002 C 
ATOM     19  CG1 VAL A   6      19.916  44.655  24.227  0.00  0.00    +0.002 C 
ENDBRANCH  16  17
BRANCH  16  20
ATOM     20  C   VAL A   6      20.009  41.664  23.979  0.00  0.00    +0.201 C 
ATOM     21  O   VAL A   6      18.738  41.859  24.053  0.00  0.00    -0.219 OA
ENDBRANCH  16  20
ENDBRANCH  13  16
ENDBRANCH  11  12
BRANCH  11  22
ATOM     22  CB  HIS A   5      19.294  41.250  18.748  0.00  0.00    +0.076 C 
BRANCH  22  23
ATOM     23  CG  HIS A   5      18.470  41.464  17.502  0.00  0.00    +0.082 A 
ATOM     24  ND1 HIS A   5      17.259  40.832  17.282  0.00  0.00    -0.227 NA
ATOM     25  CE1 HIS A   5      16.768  41.229  16.116  0.00  0.00    +0.199 A 
ATOM     26  NE2 HIS A   5      17.599  42.121  15.588  0.00  0.00    -0.221 NA
ATOM     27  CD2 HIS A   5      18.648  42.312  16.452  0.00  0.00    +0.115 A 
ENDBRANCH  22  23
ENDBRANCH  11  22
ENDBRANCH   9  11
ENDBRANCH   6   7
BRANCH   6  28
ATOM     28  CB  THR A   4      16.960  45.178  17.901  0.00  0.00    +0.137 C 
ATOM     29  CG2 THR A   4      15.643  44.449  17.668  0.00  0.00    +0.034 C 
BRANCH  28  30
ATOM     30  OG1 THR A   4      16.815  46.498  17.370  0.00  0.00    -0.382 OA
ATOM     31  HG1 THR A   4      17.643  47.013  17.539  0.00  0.00    +0.210 HD
ENDBRANCH  28  30
ENDBRANCH   6  28
ENDBRANCH   4   6
ENDBRANCH   1   2
BRANCH   1  33
ATOM     32  C   TYR A   2      20.359  49.028  22.715  0.00  0.00    +0.241 C 
ATOM     33  N   THR A   3      20.252  47.743  22.343  0.00  0.00    -0.295 N 
ATOM     34  H   THR A   3      20.373  46.985  23.045  0.00  0.00    +0.150 HD
ATOM     35  O   TYR A   2      20.210  49.983  21.916  0.00  0.00    -0.273 OA
BRANCH  32  36
ATOM     36  CA  TYR A   2      20.785  49.337  24.175  0.00  0.00    +0.153 C 
BRANCH  36  39
ATOM     37  C   PHE A   1      23.247  49.413  24.376  0.00  0.00    +0.239 C 
ATOM     38  O   PHE A   1      23.315  48.242  24.510  0.00  0.00    -0.274 OA
ATOM     39  N   TYR A   2      22.092  50.042  24.191  0.00  0.00    -0.297 N 
ATOM     40  H   TYR A   2      22.103  51.073  24.051  0.00  0.00    +0.150 HD
BRANCH  37  41
ATOM     41  CA  PHE A   1      24.446  50.265  24.603  0.00  0.00    +0.149 C 
BRANCH  41  42
ATOM     42  N   PHE A   1      24.167  50.968  25.847  0.00  0.00    -0.238 NA
ATOM     43  H   PHE A   1      23.472  50.594  26.524  0.00  0.00    +0.142 HD
ENDBRANCH  41  42
BRANCH  41  44
ATOM     44  CB  PHE A   1      25.622  49.429  24.754  0.00  0.00    +0.053 C 
BRANCH  44  45
ATOM     45  CG  PHE A   1      26.191  49.100  23.474  0.00  0.00    -0.020 A 
ATOM     46  CD2 PHE A   1      27.148  49.933  22.907  0.00  0.00    -0.004 A 
ATOM     47  CE2 PHE A   1      27.672  49.699  21.534  0.00  0.00    -0.000 A 
ATOM     48  CZ  PHE A   1      27.193  48.658  20.776  0.00  0.00    -0.000 A 
ATOM     49  CE1 PHE A   1      26.194  47.777  21.334  0.00  0.00    -0.000 A 
ATOM     50  CD1 PHE A   1      25.659  48.075  22.717  0.00  0.00    -0.004 A 
ENDBRANCH  44  45
ENDBRANCH  41  44
ENDBRANCH  37  41
ENDBRANCH  36  39
BRANCH  36  51
ATOM     51  CB  TYR A   2      19.765  50.294  24.829  0.00  0.00    +0.055 C 
BRANCH  51  52
ATOM     52  CG  TYR A   2      18.392  49.675  25.124  0.00  0.00    -0.020 A 
ATOM     53  CD2 TYR A   2      18.120  49.038  26.348  0.00  0.00    -0.001 A 
ATOM     54  CE2 TYR A   2      16.780  48.498  26.651  0.00  0.00    +0.036 A 
ATOM     55  CZ  TYR A   2      15.775  48.615  25.752  0.00  0.00    +0.134 A 
ATOM     56  CE1 TYR A   2      15.982  49.300  24.541  0.00  0.00    +0.036 A 
ATOM     57  CD1 TYR A   2      17.313  49.826  24.229  0.00  0.00    -0.001 A 
BRANCH  55  58
ATOM     58  OH  TYR A   2      14.562  48.142  26.043  0.00  0.00    -0.506 OA
ATOM     59  HH  TYR A   2      13.952  48.310  25.281  0.00  0.00    +0.292 HD
ENDBRANCH  55  58
ENDBRANCH  51  52
ENDBRANCH  36  51
ENDBRANCH  32  36
ENDBRANCH   1  33
BRANCH   1  60
ATOM     60  CB  THR A   3      21.113  46.621  20.325  0.00  0.00    +0.137 C 
ATOM     61  CG2 THR A   3      22.499  47.318  20.616  0.00  0.00    +0.034 C 
BRANCH  60  62
ATOM     62  OG1 THR A   3      21.160  45.282  20.822  0.00  0.00    -0.382 OA
ATOM     63  HG1 THR A   3      21.919  44.803  20.405  0.00  0.00    +0.210 HD
ENDBRANCH  60  62
ENDBRANCH   1  60
TORSDOF 24
REMARK  Name = ../refined-set-2016/1m0q/1m0q_pocket.pdb
REMARK  226 active torsions:
REMARK  status: ('A' for Active; 'I' for Inactive)
REMARK    1  A    between atoms: _1  and  _3
REMARK    2  A    between atoms: _3  and  _4
REMARK    3  A    between atoms: _3  and  _6
REMARK    4  A    between atoms: _6  and  _7
REMARK    5  A    between atoms: _10  and  _12
REMARK    6  A    between atoms: _12  and  _13
REMARK    7  A    between atoms: _15  and  _17
REMARK    8  A    between atoms: _17  and  _18
REMARK    9  A    between atoms: _17  and  _20
REMARK   10  A    between atoms: _20  and  _21
REMARK   11  A    between atoms: _21  and  _22
REMARK   12  A    between atoms: _27  and  _29
REMARK   13  A    between atoms: _29  and  _30
REMARK   14  A    between atoms: _29  and  _32
REMARK   15  A    between atoms: _32  and  _33
REMARK   16  A    between atoms: _33  and  _34
REMARK   17  A    between atoms: _36  and  _38
REMARK   18  A    between atoms: _38  and  _39
REMARK   19  A    between atoms: _38  and  _41
REMARK   20  A    between atoms: _41  and  _42
REMARK   21  A    between atoms: _44  and  _46
REMARK   22  A    between atoms: _46  and  _47
REMARK   23  A    between atoms: _46  and  _49
REMARK   24  A    between atoms: _49  and  _50
REMARK   25  A    between atoms: _52  and  _54
REMARK   26  A    between atoms: _54  and  _55
REMARK   27  A    between atoms: _54  and  _57
REMARK   28  A    between atoms: _57  and  _58
REMARK   29  A    between atoms: _61  and  _63
REMARK   30  A    between atoms: _63  and  _64
REMARK   31  A    between atoms: _66  and  _68
REMARK   32  A    between atoms: _68  and  _69
REMARK   33  A    between atoms: _72  and  _74
REMARK   34  A    between atoms: _74  and  _75
REMARK   35  A    between atoms: _74  and  _77
REMARK   36  A    between atoms: _77  and  _78
REMARK   37  A    between atoms: _78  and  _79
REMARK   38  A    between atoms: _82  and  _84
REMARK   39  A    between atoms: _84  and  _85
REMARK   40  A    between atoms: _84  and  _87
REMARK   41  A    between atoms: _87  and  _88
REMARK   42  A    between atoms: _90  and  _92
REMARK   43  A    between atoms: _92  and  _93
REMARK   44  A    between atoms: _92  and  _95
REMARK   45  A    between atoms: _95  and  _96
REMARK   46  A    between atoms: _101  and  _103
REMARK   47  A    between atoms: _103  and  _104
REMARK   48  A    between atoms: _103  and  _106
REMARK   49  A    between atoms: _106  and  _107
REMARK   50  A    between atoms: _107  and  _108
REMARK   51  A    between atoms: _111  and  _113
REMARK   52  A    between atoms: _113  and  _114
REMARK   53  A    between atoms: _113  and  _116
REMARK   54  A    between atoms: _116  and  _117
REMARK   55  A    between atoms: _119  and  _121
REMARK   56  A    between atoms: _121  and  _122
REMARK   57  A    between atoms: _121  and  _124
REMARK   58  A    between atoms: _124  and  _125
REMARK   59  A    between atoms: _135  and  _137
REMARK   60  A    between atoms: _137  and  _138
REMARK   61  A    between atoms: _137  and  _140
REMARK   62  A    between atoms: _140  and  _141
REMARK   63  A    between atoms: _146  and  _148
REMARK   64  A    between atoms: _148  and  _149
REMARK   65  A    between atoms: _151  and  _153
REMARK   66  A    between atoms: _153  and  _154
REMARK   67  A    between atoms: _153  and  _156
REMARK   68  A    between atoms: _156  and  _157
REMARK   69  A    between atoms: _157  and  _158
REMARK   70  A    between atoms: _160  and  _162
REMARK   71  A    between atoms: _162  and  _163
REMARK   72  A    between atoms: _162  and  _165
REMARK   73  A    between atoms: _165  and  _166
REMARK   74  A    between atoms: _169  and  _171
REMARK   75  A    between atoms: _171  and  _172
REMARK   76  A    between atoms: _175  and  _177
REMARK   77  A    between atoms: _177  and  _178
REMARK   78  A    between atoms: _177  and  _180
REMARK   79  A    between atoms: _180  and  _181
REMARK   80  A    between atoms: _184  and  _186
REMARK   81  A    between atoms: _186  and  _187
REMARK   82  A    between atoms: _186  and  _189
REMARK   83  A    between atoms: _189  and  _190
REMARK   84  A    between atoms: _193  and  _195
REMARK   85  A    between atoms: _195  and  _196
REMARK   86  A    between atoms: _199  and  _201
REMARK   87  A    between atoms: _201  and  _202
REMARK   88  A    between atoms: _201  and  _204
REMARK   89  A    between atoms: _204  and  _205
REMARK   90  A    between atoms: _205  and  _206
REMARK   91  A    between atoms: _210  and  _211
REMARK   92  A    between atoms: _216  and  _218
REMARK   93  A    between atoms: _218  and  _219
REMARK   94  A    between atoms: _218  and  _221
REMARK   95  A    between atoms: _221  and  _222
REMARK   96  A    between atoms: _225  and  _227
REMARK   97  A    between atoms: _227  and  _228
REMARK   98  A    between atoms: _227  and  _230
REMARK   99  A    between atoms: _230  and  _231
REMARK  100  A    between atoms: _234  and  _236
REMARK  101  A    between atoms: _236  and  _237
REMARK  102  A    between atoms: _236  and  _239
REMARK  103  A    between atoms: _239  and  _240
REMARK  104  A    between atoms: _242  and  _244
REMARK  105  A    between atoms: _244  and  _245
REMARK  106  A    between atoms: _244  and  _247
REMARK  107  A    between atoms: _247  and  _248
REMARK  108  A    between atoms: _250  and  _252
REMARK  109  A    between atoms: _252  and  _253
REMARK  110  A    between atoms: _255  and  _257
REMARK  111  A    between atoms: _257  and  _258
REMARK  112  A    between atoms: _260  and  _262
REMARK  113  A    between atoms: _262  and  _263
REMARK  114  A    between atoms: _262  and  _265
REMARK  115  A    between atoms: _265  and  _266
REMARK  116  A    between atoms: _269  and  _271
REMARK  117  A    between atoms: _271  and  _272
REMARK  118  A    between atoms: _271  and  _274
REMARK  119  A    between atoms: _274  and  _275
REMARK  120  A    between atoms: _275  and  _276
REMARK  121  A    between atoms: _279  and  _281
REMARK  122  A    between atoms: _281  and  _282
REMARK  123  A    between atoms: _285  and  _287
REMARK  124  A    between atoms: _287  and  _288
REMARK  125  A    between atoms: _287  and  _290
REMARK  126  A    between atoms: _290  and  _291
REMARK  127  A    between atoms: _291  and  _292
REMARK  128  A    between atoms: _297  and  _299
REMARK  129  A    between atoms: _299  and  _300
REMARK  130  A    between atoms: _299  and  _302
REMARK  131  A    between atoms: _302  and  _303
REMARK  132  A    between atoms: _306  and  _308
REMARK  133  A    between atoms: _308  and  _309
REMARK  134  A    between atoms: _311  and  _313
REMARK  135  A    between atoms: _313  and  _314
REMARK  136  A    between atoms: _313  and  _316
REMARK  137  A    between atoms: _316  and  _317
REMARK  138  A    between atoms: _320  and  _322
REMARK  139  A    between atoms: _322  and  _323
REMARK  140  A    between atoms: _322  and  _325
REMARK  141  A    between atoms: _325  and  _326
REMARK  142  A    between atoms: _329  and  _331
REMARK  143  A    between atoms: _331  and  _332
REMARK  144  A    between atoms: _331  and  _334
REMARK  145  A    between atoms: _334  and  _335
REMARK  146  A    between atoms: _337  and  _339
REMARK  147  A    between atoms: _339  and  _340
REMARK  148  A    between atoms: _339  and  _342
REMARK  149  A    between atoms: _342  and  _343
REMARK  150  A    between atoms: _343  and  _344
REMARK  151  A    between atoms: _344  and  _345
REMARK  152  A    between atoms: _345  and  _346
REMARK  153  A    between atoms: _351  and  _352
REMARK  154  A    between atoms: _357  and  _359
REMARK  155  A    between atoms: _359  and  _360
REMARK  156  A    between atoms: _359  and  _362
REMARK  157  A    between atoms: _362  and  _363
REMARK  158  A    between atoms: _366  and  _368
REMARK  159  A    between atoms: _368  and  _369
REMARK  160  A    between atoms: _372  and  _374
REMARK  161  A    between atoms: _374  and  _375
REMARK  162  A    between atoms: _374  and  _377
REMARK  163  A    between atoms: _377  and  _378
REMARK  164  A    between atoms: _383  and  _385
REMARK  165  A    between atoms: _385  and  _386
REMARK  166  A    between atoms: _385  and  _388
REMARK  167  A    between atoms: _391  and  _393
REMARK  168  A    between atoms: _393  and  _394
REMARK  169  A    between atoms: _393  and  _396
REMARK  170  A    between atoms: _396  and  _397
REMARK  171  A    between atoms: _397  and  _398
REMARK  172  A    between atoms: _398  and  _399
REMARK  173  A    between atoms: _408  and  _410
REMARK  174  A    between atoms: _410  and  _411
REMARK  175  A    between atoms: _410  and  _413
REMARK  176  A    between atoms: _413  and  _414
REMARK  177  A    between atoms: _419  and  _421
REMARK  178  A    between atoms: _421  and  _422
REMARK  179  A    between atoms: _421  and  _424
REMARK  180  A    between atoms: _424  and  _425
REMARK  181  A    between atoms: _431  and  _433
REMARK  182  A    between atoms: _433  and  _434
REMARK  183  A    between atoms: _433  and  _436
REMARK  184  A    between atoms: _436  and  _437
REMARK  185  A    between atoms: _439  and  _441
REMARK  186  A    between atoms: _441  and  _442
REMARK  187  A    between atoms: _441  and  _444
REMARK  188  A    between atoms: _444  and  _445
REMARK  189  A    between atoms: _445  and  _446
REMARK  190  A    between atoms: _449  and  _451
REMARK  191  A    between atoms: _451  and  _452
REMARK  192  A    between atoms: _451  and  _454
REMARK  193  A    between atoms: _454  and  _455
REMARK  194  A    between atoms: _458  and  _460
REMARK  195  A    between atoms: _460  and  _461
REMARK  196  A    between atoms: _460  and  _463
REMARK  197  A    between atoms: _463  and  _464
REMARK  198  A    between atoms: _466  and  _468
REMARK  199  A    between atoms: _468  and  _469
REMARK  200  A    between atoms: _468  and  _471
REMARK  201  A    between atoms: _471  and  _472
REMARK  202  A    between atoms: _472  and  _473
REMARK  203  A    between atoms: _476  and  _478
REMARK  204  A    between atoms: _478  and  _479
REMARK  205  A    between atoms: _478  and  _481
REMARK  206  A    between atoms: _481  and  _482
REMARK  207  A    between atoms: _488  and  _490
REMARK  208  A    between atoms: _490  and  _491
REMARK  209  A    between atoms: _490  and  _493
REMARK  210  A    between atoms: _493  and  _494
REMARK  211  A    between atoms: _499  and  _500
REMARK  212  A    between atoms: _502  and  _504
REMARK  213  A    between atoms: _504  and  _505
REMARK  214  A    between atoms: _504  and  _507
REMARK  215  A    between atoms: _507  and  _508
REMARK  216  A    between atoms: _511  and  _513
REMARK  217  A    between atoms: _513  and  _514
REMARK  218  A    between atoms: _513  and  _516
REMARK  219  A    between atoms: _516  and  _517
REMARK  220  A    between atoms: _520  and  _522
REMARK  221  A    between atoms: _522  and  _523
REMARK  222  A    between atoms: _522  and  _525
REMARK  223  A    between atoms: _525  and  _526
REMARK  224  A    between atoms: _531  and  _533
REMARK  225  A    between atoms: _533  and  _534
REMARK  226  A    between atoms: _533  and  _536
REMARK                            x       y       z     vdW  Elec       q    Type
REMARK                         _______ _______ _______ _____ _____    ______ ____
ROOT
ATOM      1  O   HOH     1       7.903  47.795  14.839  0.00  0.00    +0.000 OA
ENDROOT
TORSDOF 0
REMARK  Name = ../refined-set-2016/1m0q/1m0q_pocket.pdb
REMARK  226 active torsions:
REMARK  status: ('A' for Active; 'I' for Inactive)
REMARK    1  A    between atoms: _1  and  _3
REMARK    2  A    between atoms: _3  and  _4
REMARK    3  A    between atoms: _3  and  _6
REMARK    4  A    between atoms: _6  and  _7
REMARK    5  A    between atoms: _10  and  _12
REMARK    6  A    between atoms: _12  and  _13
REMARK    7  A    between atoms: _15  and  _17
REMARK    8  A    between atoms: _17  and  _18
REMARK    9  A    between atoms: _17  and  _20
REMARK   10  A    between atoms: _20  and  _21
REMARK   11  A    between atoms: _21  and  _22
REMARK   12  A    between atoms: _27  and  _29
REMARK   13  A    between atoms: _29  and  _30
REMARK   14  A    between atoms: _29  and  _32
REMARK   15  A    between atoms: _32  and  _33
REMARK   16  A    between atoms: _33  and  _34
REMARK   17  A    between atoms: _36  and  _38
REMARK   18  A    between atoms: _38  and  _39
REMARK   19  A    between atoms: _38  and  _41
REMARK   20  A    between atoms: _41  and  _42
REMARK   21  A    between atoms: _44  and  _46
REMARK   22  A    between atoms: _46  and  _47
REMARK   23  A    between atoms: _46  and  _49
REMARK   24  A    between atoms: _49  and  _50
REMARK   25  A    between atoms: _52  and  _54
REMARK   26  A    between atoms: _54  and  _55
REMARK   27  A    between atoms: _54  and  _57
REMARK   28  A    between atoms: _57  and  _58
REMARK   29  A    between atoms: _61  and  _63
REMARK   30  A    between atoms: _63  and  _64
REMARK   31  A    between atoms: _66  and  _68
REMARK   32  A    between atoms: _68  and  _69
REMARK   33  A    between atoms: _72  and  _74
REMARK   34  A    between atoms: _74  and  _75
REMARK   35  A    between atoms: _74  and  _77
REMARK   36  A    between atoms: _77  and  _78
REMARK   37  A    between atoms: _78  and  _79
REMARK   38  A    between atoms: _82  and  _84
REMARK   39  A    between atoms: _84  and  _85
REMARK   40  A    between atoms: _84  and  _87
REMARK   41  A    between atoms: _87  and  _88
REMARK   42  A    between atoms: _90  and  _92
REMARK   43  A    between atoms: _92  and  _93
REMARK   44  A    between atoms: _92  and  _95
REMARK   45  A    between atoms: _95  and  _96
REMARK   46  A    between atoms: _101  and  _103
REMARK   47  A    between atoms: _103  and  _104
REMARK   48  A    between atoms: _103  and  _106
REMARK   49  A    between atoms: _106  and  _107
REMARK   50  A    between atoms: _107  and  _108
REMARK   51  A    between atoms: _111  and  _113
REMARK   52  A    between atoms: _113  and  _114
REMARK   53  A    between atoms: _113  and  _116
REMARK   54  A    between atoms: _116  and  _117
REMARK   55  A    between atoms: _119  and  _121
REMARK   56  A    between atoms: _121  and  _122
REMARK   57  A    between atoms: _121  and  _124
REMARK   58  A    between atoms: _124  and  _125
REMARK   59  A    between atoms: _135  and  _137
REMARK   60  A    between atoms: _137  and  _138
REMARK   61  A    between atoms: _137  and  _140
REMARK   62  A    between atoms: _140  and  _141
REMARK   63  A    between atoms: _146  and  _148
REMARK   64  A    between atoms: _148  and  _149
REMARK   65  A    between atoms: _151  and  _153
REMARK   66  A    between atoms: _153  and  _154
REMARK   67  A    between atoms: _153  and  _156
REMARK   68  A    between atoms: _156  and  _157
REMARK   69  A    between atoms: _157  and  _158
REMARK   70  A    between atoms: _160  and  _162
REMARK   71  A    between atoms: _162  and  _163
REMARK   72  A    between atoms: _162  and  _165
REMARK   73  A    between atoms: _165  and  _166
REMARK   74  A    between atoms: _169  and  _171
REMARK   75  A    between atoms: _171  and  _172
REMARK   76  A    between atoms: _175  and  _177
REMARK   77  A    between atoms: _177  and  _178
REMARK   78  A    between atoms: _177  and  _180
REMARK   79  A    between atoms: _180  and  _181
REMARK   80  A    between atoms: _184  and  _186
REMARK   81  A    between atoms: _186  and  _187
REMARK   82  A    between atoms: _186  and  _189
REMARK   83  A    between atoms: _189  and  _190
REMARK   84  A    between atoms: _193  and  _195
REMARK   85  A    between atoms: _195  and  _196
REMARK   86  A    between atoms: _199  and  _201
REMARK   87  A    between atoms: _201  and  _202
REMARK   88  A    between atoms: _201  and  _204
REMARK   89  A    between atoms: _204  and  _205
REMARK   90  A    between atoms: _205  and  _206
REMARK   91  A    between atoms: _210  and  _211
REMARK   92  A    between atoms: _216  and  _218
REMARK   93  A    between atoms: _218  and  _219
REMARK   94  A    between atoms: _218  and  _221
REMARK   95  A    between atoms: _221  and  _222
REMARK   96  A    between atoms: _225  and  _227
REMARK   97  A    between atoms: _227  and  _228
REMARK   98  A    between atoms: _227  and  _230
REMARK   99  A    between atoms: _230  and  _231
REMARK  100  A    between atoms: _234  and  _236
REMARK  101  A    between atoms: _236  and  _237
REMARK  102  A    between atoms: _236  and  _239
REMARK  103  A    between atoms: _239  and  _240
REMARK  104  A    between atoms: _242  and  _244
REMARK  105  A    between atoms: _244  and  _245
REMARK  106  A    between atoms: _244  and  _247
REMARK  107  A    between atoms: _247  and  _248
REMARK  108  A    between atoms: _250  and  _252
REMARK  109  A    between atoms: _252  and  _253
REMARK  110  A    between atoms: _255  and  _257
REMARK  111  A    between atoms: _257  and  _258
REMARK  112  A    between atoms: _260  and  _262
REMARK  113  A    between atoms: _262  and  _263
REMARK  114  A    between atoms: _262  and  _265
REMARK  115  A    between atoms: _265  and  _266
REMARK  116  A    between atoms: _269  and  _271
REMARK  117  A    between atoms: _271  and  _272
REMARK  118  A    between atoms: _271  and  _274
REMARK  119  A    between atoms: _274  and  _275
REMARK  120  A    between atoms: _275  and  _276
REMARK  121  A    between atoms: _279  and  _281
REMARK  122  A    between atoms: _281  and  _282
REMARK  123  A    between atoms: _285  and  _287
REMARK  124  A    between atoms: _287  and  _288
REMARK  125  A    between atoms: _287  and  _290
REMARK  126  A    between atoms: _290  and  _291
REMARK  127  A    between atoms: _291  and  _292
REMARK  128  A    between atoms: _297  and  _299
REMARK  129  A    between atoms: _299  and  _300
REMARK  130  A    between atoms: _299  and  _302
REMARK  131  A    between atoms: _302  and  _303
REMARK  132  A    between atoms: _306  and  _308
REMARK  133  A    between atoms: _308  and  _309
REMARK  134  A    between atoms: _311  and  _313
REMARK  135  A    between atoms: _313  and  _314
REMARK  136  A    between atoms: _313  and  _316
REMARK  137  A    between atoms: _316  and  _317
REMARK  138  A    between atoms: _320  and  _322
REMARK  139  A    between atoms: _322  and  _323
REMARK  140  A    between atoms: _322  and  _325
REMARK  141  A    between atoms: _325  and  _326
REMARK  142  A    between atoms: _329  and  _331
REMARK  143  A    between atoms: _331  and  _332
REMARK  144  A    between atoms: _331  and  _334
REMARK  145  A    between atoms: _334  and  _335
REMARK  146  A    between atoms: _337  and  _339
REMARK  147  A    between atoms: _339  and  _340
REMARK  148  A    between atoms: _339  and  _342
REMARK  149  A    between atoms: _342  and  _343
REMARK  150  A    between atoms: _343  and  _344
REMARK  151  A    between atoms: _344  and  _345
REMARK  152  A    between atoms: _345  and  _346
REMARK  153  A    between atoms: _351  and  _352
REMARK  154  A    between atoms: _357  and  _359
REMARK  155  A    between atoms: _359  and  _360
REMARK  156  A    between atoms: _359  and  _362
REMARK  157  A    between atoms: _362  and  _363
REMARK  158  A    between atoms: _366  and  _368
REMARK  159  A    between atoms: _368  and  _369
REMARK  160  A    between atoms: _372  and  _374
REMARK  161  A    between atoms: _374  and  _375
REMARK  162  A    between atoms: _374  and  _377
REMARK  163  A    between atoms: _377  and  _378
REMARK  164  A    between atoms: _383  and  _385
REMARK  165  A    between atoms: _385  and  _386
REMARK  166  A    between atoms: _385  and  _388
REMARK  167  A    between atoms: _391  and  _393
REMARK  168  A    between atoms: _393  and  _394
REMARK  169  A    between atoms: _393  and  _396
REMARK  170  A    between atoms: _396  and  _397
REMARK  171  A    between atoms: _397  and  _398
REMARK  172  A    between atoms: _398  and  _399
REMARK  173  A    between atoms: _408  and  _410
REMARK  174  A    between atoms: _410  and  _411
REMARK  175  A    between atoms: _410  and  _413
REMARK  176  A    between atoms: _413  and  _414
REMARK  177  A    between atoms: _419  and  _421
REMARK  178  A    between atoms: _421  and  _422
REMARK  179  A    between atoms: _421  and  _424
REMARK  180  A    between atoms: _424  and  _425
REMARK  181  A    between atoms: _431  and  _433
REMARK  182  A    between atoms: _433  and  _434
REMARK  183  A    between atoms: _433  and  _436
REMARK  184  A    between atoms: _436  and  _437
REMARK  185  A    between atoms: _439  and  _441
REMARK  186  A    between atoms: _441  and  _442
REMARK  187  A    between atoms: _441  and  _444
REMARK  188  A    between atoms: _444  and  _445
REMARK  189  A    between atoms: _445  and  _446
REMARK  190  A    between atoms: _449  and  _451
REMARK  191  A    between atoms: _451  and  _452
REMARK  192  A    between atoms: _451  and  _454
REMARK  193  A    between atoms: _454  and  _455
REMARK  194  A    between atoms: _458  and  _460
REMARK  195  A    between atoms: _460  and  _461
REMARK  196  A    between atoms: _460  and  _463
REMARK  197  A    between atoms: _463  and  _464
REMARK  198  A    between atoms: _466  and  _468
REMARK  199  A    between atoms: _468  and  _469
REMARK  200  A    between atoms: _468  and  _471
REMARK  201  A    between atoms: _471  and  _472
REMARK  202  A    between atoms: _472  and  _473
REMARK  203  A    between atoms: _476  and  _478
REMARK  204  A    between atoms: _478  and  _479
REMARK  205  A    between atoms: _478  and  _481
REMARK  206  A    between atoms: _481  and  _482
REMARK  207  A    between atoms: _488  and  _490
REMARK  208  A    between atoms: _490  and  _491
REMARK  209  A    between atoms: _490  and  _493
REMARK  210  A    between atoms: _493  and  _494
REMARK  211  A    between atoms: _499  and  _500
REMARK  212  A    between atoms: _502  and  _504
REMARK  213  A    between atoms: _504  and  _505
REMARK  214  A    between atoms: _504  and  _507
REMARK  215  A    between atoms: _507  and  _508
REMARK  216  A    between atoms: _511  and  _513
REMARK  217  A    between atoms: _513  and  _514
REMARK  218  A    between atoms: _513  and  _516
REMARK  219  A    between atoms: _516  and  _517
REMARK  220  A    between atoms: _520  and  _522
REMARK  221  A    between atoms: _522  and  _523
REMARK  222  A    between atoms: _522  and  _525
REMARK  223  A    between atoms: _525  and  _526
REMARK  224  A    between atoms: _531  and  _533
REMARK  225  A    between atoms: _533  and  _534
REMARK  226  A    between atoms: _533  and  _536
REMARK                            x       y       z     vdW  Elec       q    Type
REMARK                         _______ _______ _______ _____ _____    ______ ____
ROOT
ATOM      1  O   HOH     1      17.349  49.592   9.597  0.00  0.00    +0.000 OA
ENDROOT
TORSDOF 0
REMARK  Name = ../refined-set-2016/1m0q/1m0q_pocket.pdb
REMARK  226 active torsions:
REMARK  status: ('A' for Active; 'I' for Inactive)
REMARK    1  A    between atoms: _1  and  _3
REMARK    2  A    between atoms: _3  and  _4
REMARK    3  A    between atoms: _3  and  _6
REMARK    4  A    between atoms: _6  and  _7
REMARK    5  A    between atoms: _10  and  _12
REMARK    6  A    between atoms: _12  and  _13
REMARK    7  A    between atoms: _15  and  _17
REMARK    8  A    between atoms: _17  and  _18
REMARK    9  A    between atoms: _17  and  _20
REMARK   10  A    between atoms: _20  and  _21
REMARK   11  A    between atoms: _21  and  _22
REMARK   12  A    between atoms: _27  and  _29
REMARK   13  A    between atoms: _29  and  _30
REMARK   14  A    between atoms: _29  and  _32
REMARK   15  A    between atoms: _32  and  _33
REMARK   16  A    between atoms: _33  and  _34
REMARK   17  A    between atoms: _36  and  _38
REMARK   18  A    between atoms: _38  and  _39
REMARK   19  A    between atoms: _38  and  _41
REMARK   20  A    between atoms: _41  and  _42
REMARK   21  A    between atoms: _44  and  _46
REMARK   22  A    between atoms: _46  and  _47
REMARK   23  A    between atoms: _46  and  _49
REMARK   24  A    between atoms: _49  and  _50
REMARK   25  A    between atoms: _52  and  _54
REMARK   26  A    between atoms: _54  and  _55
REMARK   27  A    between atoms: _54  and  _57
REMARK   28  A    between atoms: _57  and  _58
REMARK   29  A    between atoms: _61  and  _63
REMARK   30  A    between atoms: _63  and  _64
REMARK   31  A    between atoms: _66  and  _68
REMARK   32  A    between atoms: _68  and  _69
REMARK   33  A    between atoms: _72  and  _74
REMARK   34  A    between atoms: _74  and  _75
REMARK   35  A    between atoms: _74  and  _77
REMARK   36  A    between atoms: _77  and  _78
REMARK   37  A    between atoms: _78  and  _79
REMARK   38  A    between atoms: _82  and  _84
REMARK   39  A    between atoms: _84  and  _85
REMARK   40  A    between atoms: _84  and  _87
REMARK   41  A    between atoms: _87  and  _88
REMARK   42  A    between atoms: _90  and  _92
REMARK   43  A    between atoms: _92  and  _93
REMARK   44  A    between atoms: _92  and  _95
REMARK   45  A    between atoms: _95  and  _96
REMARK   46  A    between atoms: _101  and  _103
REMARK   47  A    between atoms: _103  and  _104
REMARK   48  A    between atoms: _103  and  _106
REMARK   49  A    between atoms: _106  and  _107
REMARK   50  A    between atoms: _107  and  _108
REMARK   51  A    between atoms: _111  and  _113
REMARK   52  A    between atoms: _113  and  _114
REMARK   53  A    between atoms: _113  and  _116
REMARK   54  A    between atoms: _116  and  _117
REMARK   55  A    between atoms: _119  and  _121
REMARK   56  A    between atoms: _121  and  _122
REMARK   57  A    between atoms: _121  and  _124
REMARK   58  A    between atoms: _124  and  _125
REMARK   59  A    between atoms: _135  and  _137
REMARK   60  A    between atoms: _137  and  _138
REMARK   61  A    between atoms: _137  and  _140
REMARK   62  A    between atoms: _140  and  _141
REMARK   63  A    between atoms: _146  and  _148
REMARK   64  A    between atoms: _148  and  _149
REMARK   65  A    between atoms: _151  and  _153
REMARK   66  A    between atoms: _153  and  _154
REMARK   67  A    between atoms: _153  and  _156
REMARK   68  A    between atoms: _156  and  _157
REMARK   69  A    between atoms: _157  and  _158
REMARK   70  A    between atoms: _160  and  _162
REMARK   71  A    between atoms: _162  and  _163
REMARK   72  A    between atoms: _162  and  _165
REMARK   73  A    between atoms: _165  and  _166
REMARK   74  A    between atoms: _169  and  _171
REMARK   75  A    between atoms: _171  and  _172
REMARK   76  A    between atoms: _175  and  _177
REMARK   77  A    between atoms: _177  and  _178
REMARK   78  A    between atoms: _177  and  _180
REMARK   79  A    between atoms: _180  and  _181
REMARK   80  A    between atoms: _184  and  _186
REMARK   81  A    between atoms: _186  and  _187
REMARK   82  A    between atoms: _186  and  _189
REMARK   83  A    between atoms: _189  and  _190
REMARK   84  A    between atoms: _193  and  _195
REMARK   85  A    between atoms: _195  and  _196
REMARK   86  A    between atoms: _199  and  _201
REMARK   87  A    between atoms: _201  and  _202
REMARK   88  A    between atoms: _201  and  _204
REMARK   89  A    between atoms: _204  and  _205
REMARK   90  A    between atoms: _205  and  _206
REMARK   91  A    between atoms: _210  and  _211
REMARK   92  A    between atoms: _216  and  _218
REMARK   93  A    between atoms: _218  and  _219
REMARK   94  A    between atoms: _218  and  _221
REMARK   95  A    between atoms: _221  and  _222
REMARK   96  A    between atoms: _225  and  _227
REMARK   97  A    between atoms: _227  and  _228
REMARK   98  A    between atoms: _227  and  _230
REMARK   99  A    between atoms: _230  and  _231
REMARK  100  A    between atoms: _234  and  _236
REMARK  101  A    between atoms: _236  and  _237
REMARK  102  A    between atoms: _236  and  _239
REMARK  103  A    between atoms: _239  and  _240
REMARK  104  A    between atoms: _242  and  _244
REMARK  105  A    between atoms: _244  and  _245
REMARK  106  A    between atoms: _244  and  _247
REMARK  107  A    between atoms: _247  and  _248
REMARK  108  A    between atoms: _250  and  _252
REMARK  109  A    between atoms: _252  and  _253
REMARK  110  A    between atoms: _255  and  _257
REMARK  111  A    between atoms: _257  and  _258
REMARK  112  A    between atoms: _260  and  _262
REMARK  113  A    between atoms: _262  and  _263
REMARK  114  A    between atoms: _262  and  _265
REMARK  115  A    between atoms: _265  and  _266
REMARK  116  A    between atoms: _269  and  _271
REMARK  117  A    between atoms: _271  and  _272
REMARK  118  A    between atoms: _271  and  _274
REMARK  119  A    between atoms: _274  and  _275
REMARK  120  A    between atoms: _275  and  _276
REMARK  121  A    between atoms: _279  and  _281
REMARK  122  A    between atoms: _281  and  _282
REMARK  123  A    between atoms: _285  and  _287
REMARK  124  A    between atoms: _287  and  _288
REMARK  125  A    between atoms: _287  and  _290
REMARK  126  A    between atoms: _290  and  _291
REMARK  127  A    between atoms: _291  and  _292
REMARK  128  A    between atoms: _297  and  _299
REMARK  129  A    between atoms: _299  and  _300
REMARK  130  A    between atoms: _299  and  _302
REMARK  131  A    between atoms: _302  and  _303
REMARK  132  A    between atoms: _306  and  _308
REMARK  133  A    between atoms: _308  and  _309
REMARK  134  A    between atoms: _311  and  _313
REMARK  135  A    between atoms: _313  and  _314
REMARK  136  A    between atoms: _313  and  _316
REMARK  137  A    between atoms: _316  and  _317
REMARK  138  A    between atoms: _320  and  _322
REMARK  139  A    between atoms: _322  and  _323
REMARK  140  A    between atoms: _322  and  _325
REMARK  141  A    between atoms: _325  and  _326
REMARK  142  A    between atoms: _329  and  _331
REMARK  143  A    between atoms: _331  and  _332
REMARK  144  A    between atoms: _331  and  _334
REMARK  145  A    between atoms: _334  and  _335
REMARK  146  A    between atoms: _337  and  _339
REMARK  147  A    between atoms: _339  and  _340
REMARK  148  A    between atoms: _339  and  _342
REMARK  149  A    between atoms: _342  and  _343
REMARK  150  A    between atoms: _343  and  _344
REMARK  151  A    between atoms: _344  and  _345
REMARK  152  A    between atoms: _345  and  _346
REMARK  153  A    between atoms: _351  and  _352
REMARK  154  A    between atoms: _357  and  _359
REMARK  155  A    between atoms: _359  and  _360
REMARK  156  A    between atoms: _359  and  _362
REMARK  157  A    between atoms: _362  and  _363
REMARK  158  A    between atoms: _366  and  _368
REMARK  159  A    between atoms: _368  and  _369
REMARK  160  A    between atoms: _372  and  _374
REMARK  161  A    between atoms: _374  and  _375
REMARK  162  A    between atoms: _374  and  _377
REMARK  163  A    between atoms: _377  and  _378
REMARK  164  A    between atoms: _383  and  _385
REMARK  165  A    between atoms: _385  and  _386
REMARK  166  A    between atoms: _385  and  _388
REMARK  167  A    between atoms: _391  and  _393
REMARK  168  A    between atoms: _393  and  _394
REMARK  169  A    between atoms: _393  and  _396
REMARK  170  A    between atoms: _396  and  _397
REMARK  171  A    between atoms: _397  and  _398
REMARK  172  A    between atoms: _398  and  _399
REMARK  173  A    between atoms: _408  and  _410
REMARK  174  A    between atoms: _410  and  _411
REMARK  175  A    between atoms: _410  and  _413
REMARK  176  A    between atoms: _413  and  _414
REMARK  177  A    between atoms: _419  and  _421
REMARK  178  A    between atoms: _421  and  _422
REMARK  179  A    between atoms: _421  and  _424
REMARK  180  A    between atoms: _424  and  _425
REMARK  181  A    between atoms: _431  and  _433
REMARK  182  A    between atoms: _433  and  _434
REMARK  183  A    between atoms: _433  and  _436
REMARK  184  A    between atoms: _436  and  _437
REMARK  185  A    between atoms: _439  and  _441
REMARK  186  A    between atoms: _441  and  _442
REMARK  187  A    between atoms: _441  and  _444
REMARK  188  A    between atoms: _444  and  _445
REMARK  189  A    between atoms: _445  and  _446
REMARK  190  A    between atoms: _449  and  _451
REMARK  191  A    between atoms: _451  and  _452
REMARK  192  A    between atoms: _451  and  _454
REMARK  193  A    between atoms: _454  and  _455
REMARK  194  A    between atoms: _458  and  _460
REMARK  195  A    between atoms: _460  and  _461
REMARK  196  A    between atoms: _460  and  _463
REMARK  197  A    between atoms: _463  and  _464
REMARK  198  A    between atoms: _466  and  _468
REMARK  199  A    between atoms: _468  and  _469
REMARK  200  A    between atoms: _468  and  _471
REMARK  201  A    between atoms: _471  and  _472
REMARK  202  A    between atoms: _472  and  _473
REMARK  203  A    between atoms: _476  and  _478
REMARK  204  A    between atoms: _478  and  _479
REMARK  205  A    between atoms: _478  and  _481
REMARK  206  A    between atoms: _481  and  _482
REMARK  207  A    between atoms: _488  and  _490
REMARK  208  A    between atoms: _490  and  _491
REMARK  209  A    between atoms: _490  and  _493
REMARK  210  A    between atoms: _493  and  _494
REMARK  211  A    between atoms: _499  and  _500
REMARK  212  A    between atoms: _502  and  _504
REMARK  213  A    between atoms: _504  and  _505
REMARK  214  A    between atoms: _504  and  _507
REMARK  215  A    between atoms: _507  and  _508
REMARK  216  A    between atoms: _511  and  _513
REMARK  217  A    between atoms: _513  and  _514
REMARK  218  A    between atoms: _513  and  _516
REMARK  219  A    between atoms: _516  and  _517
REMARK  220  A    between atoms: _520  and  _522
REMARK  221  A    between atoms: _522  and  _523
REMARK  222  A    between atoms: _522  and  _525
REMARK  223  A    between atoms: _525  and  _526
REMARK  224  A    between atoms: _531  and  _533
REMARK  225  A    between atoms: _533  and  _534
REMARK  226  A    between atoms: _533  and  _536
REMARK                            x       y       z     vdW  Elec       q    Type
REMARK                         _______ _______ _______ _____ _____    ______ ____
ROOT
ATOM      1  O   HOH     1      13.748  58.682  17.284  0.00  0.00    +0.000 OA
ENDROOT
TORSDOF 0
REMARK  Name = ../refined-set-2016/1m0q/1m0q_pocket.pdb
REMARK  226 active torsions:
REMARK  status: ('A' for Active; 'I' for Inactive)
REMARK    1  A    between atoms: _1  and  _3
REMARK    2  A    between atoms: _3  and  _4
REMARK    3  A    between atoms: _3  and  _6
REMARK    4  A    between atoms: _6  and  _7
REMARK    5  A    between atoms: _10  and  _12
REMARK    6  A    between atoms: _12  and  _13
REMARK    7  A    between atoms: _15  and  _17
REMARK    8  A    between atoms: _17  and  _18
REMARK    9  A    between atoms: _17  and  _20
REMARK   10  A    between atoms: _20  and  _21
REMARK   11  A    between atoms: _21  and  _22
REMARK   12  A    between atoms: _27  and  _29
REMARK   13  A    between atoms: _29  and  _30
REMARK   14  A    between atoms: _29  and  _32
REMARK   15  A    between atoms: _32  and  _33
REMARK   16  A    between atoms: _33  and  _34
REMARK   17  A    between atoms: _36  and  _38
REMARK   18  A    between atoms: _38  and  _39
REMARK   19  A    between atoms: _38  and  _41
REMARK   20  A    between atoms: _41  and  _42
REMARK   21  A    between atoms: _44  and  _46
REMARK   22  A    between atoms: _46  and  _47
REMARK   23  A    between atoms: _46  and  _49
REMARK   24  A    between atoms: _49  and  _50
REMARK   25  A    between atoms: _52  and  _54
REMARK   26  A    between atoms: _54  and  _55
REMARK   27  A    between atoms: _54  and  _57
REMARK   28  A    between atoms: _57  and  _58
REMARK   29  A    between atoms: _61  and  _63
REMARK   30  A    between atoms: _63  and  _64
REMARK   31  A    between atoms: _66  and  _68
REMARK   32  A    between atoms: _68  and  _69
REMARK   33  A    between atoms: _72  and  _74
REMARK   34  A    between atoms: _74  and  _75
REMARK   35  A    between atoms: _74  and  _77
REMARK   36  A    between atoms: _77  and  _78
REMARK   37  A    between atoms: _78  and  _79
REMARK   38  A    between atoms: _82  and  _84
REMARK   39  A    between atoms: _84  and  _85
REMARK   40  A    between atoms: _84  and  _87
REMARK   41  A    between atoms: _87  and  _88
REMARK   42  A    between atoms: _90  and  _92
REMARK   43  A    between atoms: _92  and  _93
REMARK   44  A    between atoms: _92  and  _95
REMARK   45  A    between atoms: _95  and  _96
REMARK   46  A    between atoms: _101  and  _103
REMARK   47  A    between atoms: _103  and  _104
REMARK   48  A    between atoms: _103  and  _106
REMARK   49  A    between atoms: _106  and  _107
REMARK   50  A    between atoms: _107  and  _108
REMARK   51  A    between atoms: _111  and  _113
REMARK   52  A    between atoms: _113  and  _114
REMARK   53  A    between atoms: _113  and  _116
REMARK   54  A    between atoms: _116  and  _117
REMARK   55  A    between atoms: _119  and  _121
REMARK   56  A    between atoms: _121  and  _122
REMARK   57  A    between atoms: _121  and  _124
REMARK   58  A    between atoms: _124  and  _125
REMARK   59  A    between atoms: _135  and  _137
REMARK   60  A    between atoms: _137  and  _138
REMARK   61  A    between atoms: _137  and  _140
REMARK   62  A    between atoms: _140  and  _141
REMARK   63  A    between atoms: _146  and  _148
REMARK   64  A    between atoms: _148  and  _149
REMARK   65  A    between atoms: _151  and  _153
REMARK   66  A    between atoms: _153  and  _154
REMARK   67  A    between atoms: _153  and  _156
REMARK   68  A    between atoms: _156  and  _157
REMARK   69  A    between atoms: _157  and  _158
REMARK   70  A    between atoms: _160  and  _162
REMARK   71  A    between atoms: _162  and  _163
REMARK   72  A    between atoms: _162  and  _165
REMARK   73  A    between atoms: _165  and  _166
REMARK   74  A    between atoms: _169  and  _171
REMARK   75  A    between atoms: _171  and  _172
REMARK   76  A    between atoms: _175  and  _177
REMARK   77  A    between atoms: _177  and  _178
REMARK   78  A    between atoms: _177  and  _180
REMARK   79  A    between atoms: _180  and  _181
REMARK   80  A    between atoms: _184  and  _186
REMARK   81  A    between atoms: _186  and  _187
REMARK   82  A    between atoms: _186  and  _189
REMARK   83  A    between atoms: _189  and  _190
REMARK   84  A    between atoms: _193  and  _195
REMARK   85  A    between atoms: _195  and  _196
REMARK   86  A    between atoms: _199  and  _201
REMARK   87  A    between atoms: _201  and  _202
REMARK   88  A    between atoms: _201  and  _204
REMARK   89  A    between atoms: _204  and  _205
REMARK   90  A    between atoms: _205  and  _206
REMARK   91  A    between atoms: _210  and  _211
REMARK   92  A    between atoms: _216  and  _218
REMARK   93  A    between atoms: _218  and  _219
REMARK   94  A    between atoms: _218  and  _221
REMARK   95  A    between atoms: _221  and  _222
REMARK   96  A    between atoms: _225  and  _227
REMARK   97  A    between atoms: _227  and  _228
REMARK   98  A    between atoms: _227  and  _230
REMARK   99  A    between atoms: _230  and  _231
REMARK  100  A    between atoms: _234  and  _236
REMARK  101  A    between atoms: _236  and  _237
REMARK  102  A    between atoms: _236  and  _239
REMARK  103  A    between atoms: _239  and  _240
REMARK  104  A    between atoms: _242  and  _244
REMARK  105  A    between atoms: _244  and  _245
REMARK  106  A    between atoms: _244  and  _247
REMARK  107  A    between atoms: _247  and  _248
REMARK  108  A    between atoms: _250  and  _252
REMARK  109  A    between atoms: _252  and  _253
REMARK  110  A    between atoms: _255  and  _257
REMARK  111  A    between atoms: _257  and  _258
REMARK  112  A    between atoms: _260  and  _262
REMARK  113  A    between atoms: _262  and  _263
REMARK  114  A    between atoms: _262  and  _265
REMARK  115  A    between atoms: _265  and  _266
REMARK  116  A    between atoms: _269  and  _271
REMARK  117  A    between atoms: _271  and  _272
REMARK  118  A    between atoms: _271  and  _274
REMARK  119  A    between atoms: _274  and  _275
REMARK  120  A    between atoms: _275  and  _276
REMARK  121  A    between atoms: _279  and  _281
REMARK  122  A    between atoms: _281  and  _282
REMARK  123  A    between atoms: _285  and  _287
REMARK  124  A    between atoms: _287  and  _288
REMARK  125  A    between atoms: _287  and  _290
REMARK  126  A    between atoms: _290  and  _291
REMARK  127  A    between atoms: _291  and  _292
REMARK  128  A    between atoms: _297  and  _299
REMARK  129  A    between atoms: _299  and  _300
REMARK  130  A    between atoms: _299  and  _302
REMARK  131  A    between atoms: _302  and  _303
REMARK  132  A    between atoms: _306  and  _308
REMARK  133  A    between atoms: _308  and  _309
REMARK  134  A    between atoms: _311  and  _313
REMARK  135  A    between atoms: _313  and  _314
REMARK  136  A    between atoms: _313  and  _316
REMARK  137  A    between atoms: _316  and  _317
REMARK  138  A    between atoms: _320  and  _322
REMARK  139  A    between atoms: _322  and  _323
REMARK  140  A    between atoms: _322  and  _325
REMARK  141  A    between atoms: _325  and  _326
REMARK  142  A    between atoms: _329  and  _331
REMARK  143  A    between atoms: _331  and  _332
REMARK  144  A    between atoms: _331  and  _334
REMARK  145  A    between atoms: _334  and  _335
REMARK  146  A    between atoms: _337  and  _339
REMARK  147  A    between atoms: _339  and  _340
REMARK  148  A    between atoms: _339  and  _342
REMARK  149  A    between atoms: _342  and  _343
REMARK  150  A    between atoms: _343  and  _344
REMARK  151  A    between atoms: _344  and  _345
REMARK  152  A    between atoms: _345  and  _346
REMARK  153  A    between atoms: _351  and  _352
REMARK  154  A    between atoms: _357  and  _359
REMARK  155  A    between atoms: _359  and  _360
REMARK  156  A    between atoms: _359  and  _362
REMARK  157  A    between atoms: _362  and  _363
REMARK  158  A    between atoms: _366  and  _368
REMARK  159  A    between atoms: _368  and  _369
REMARK  160  A    between atoms: _372  and  _374
REMARK  161  A    between atoms: _374  and  _375
REMARK  162  A    between atoms: _374  and  _377
REMARK  163  A    between atoms: _377  and  _378
REMARK  164  A    between atoms: _383  and  _385
REMARK  165  A    between atoms: _385  and  _386
REMARK  166  A    between atoms: _385  and  _388
REMARK  167  A    between atoms: _391  and  _393
REMARK  168  A    between atoms: _393  and  _394
REMARK  169  A    between atoms: _393  and  _396
REMARK  170  A    between atoms: _396  and  _397
REMARK  171  A    between atoms: _397  and  _398
REMARK  172  A    between atoms: _398  and  _399
REMARK  173  A    between atoms: _408  and  _410
REMARK  174  A    between atoms: _410  and  _411
REMARK  175  A    between atoms: _410  and  _413
REMARK  176  A    between atoms: _413  and  _414
REMARK  177  A    between atoms: _419  and  _421
REMARK  178  A    between atoms: _421  and  _422
REMARK  179  A    between atoms: _421  and  _424
REMARK  180  A    between atoms: _424  and  _425
REMARK  181  A    between atoms: _431  and  _433
REMARK  182  A    between atoms: _433  and  _434
REMARK  183  A    between atoms: _433  and  _436
REMARK  184  A    between atoms: _436  and  _437
REMARK  185  A    between atoms: _439  and  _441
REMARK  186  A    between atoms: _441  and  _442
REMARK  187  A    between atoms: _441  and  _444
REMARK  188  A    between atoms: _444  and  _445
REMARK  189  A    between atoms: _445  and  _446
REMARK  190  A    between atoms: _449  and  _451
REMARK  191  A    between atoms: _451  and  _452
REMARK  192  A    between atoms: _451  and  _454
REMARK  193  A    between atoms: _454  and  _455
REMARK  194  A    between atoms: _458  and  _460
REMARK  195  A    between atoms: _460  and  _461
REMARK  196  A    between atoms: _460  and  _463
REMARK  197  A    between atoms: _463  and  _464
REMARK  198  A    between atoms: _466  and  _468
REMARK  199  A    between atoms: _468  and  _469
REMARK  200  A    between atoms: _468  and  _471
REMARK  201  A    between atoms: _471  and  _472
REMARK  202  A    between atoms: _472  and  _473
REMARK  203  A    between atoms: _476  and  _478
REMARK  204  A    between atoms: _478  and  _479
REMARK  205  A    between atoms: _478  and  _481
REMARK  206  A    between atoms: _481  and  _482
REMARK  207  A    between atoms: _488  and  _490
REMARK  208  A    between atoms: _490  and  _491
REMARK  209  A    between atoms: _490  and  _493
REMARK  210  A    between atoms: _493  and  _494
REMARK  211  A    between atoms: _499  and  _500
REMARK  212  A    between atoms: _502  and  _504
REMARK  213  A    between atoms: _504  and  _505
REMARK  214  A    between atoms: _504  and  _507
REMARK  215  A    between atoms: _507  and  _508
REMARK  216  A    between atoms: _511  and  _513
REMARK  217  A    between atoms: _513  and  _514
REMARK  218  A    between atoms: _513  and  _516
REMARK  219  A    between atoms: _516  and  _517
REMARK  220  A    between atoms: _520  and  _522
REMARK  221  A    between atoms: _522  and  _523
REMARK  222  A    between atoms: _522  and  _525
REMARK  223  A    between atoms: _525  and  _526
REMARK  224  A    between atoms: _531  and  _533
REMARK  225  A    between atoms: _533  and  _534
REMARK  226  A    between atoms: _533  and  _536
REMARK                            x       y       z     vdW  Elec       q    Type
REMARK                         _______ _______ _______ _____ _____    ______ ____
ROOT
ATOM      1  O   HOH     1      20.130  50.997  19.373  0.00  0.00    +0.000 OA
ENDROOT
TORSDOF 0
REMARK  Name = ../refined-set-2016/1m0q/1m0q_pocket.pdb
REMARK  226 active torsions:
REMARK  status: ('A' for Active; 'I' for Inactive)
REMARK    1  A    between atoms: _1  and  _3
REMARK    2  A    between atoms: _3  and  _4
REMARK    3  A    between atoms: _3  and  _6
REMARK    4  A    between atoms: _6  and  _7
REMARK    5  A    between atoms: _10  and  _12
REMARK    6  A    between atoms: _12  and  _13
REMARK    7  A    between atoms: _15  and  _17
REMARK    8  A    between atoms: _17  and  _18
REMARK    9  A    between atoms: _17  and  _20
REMARK   10  A    between atoms: _20  and  _21
REMARK   11  A    between atoms: _21  and  _22
REMARK   12  A    between atoms: _27  and  _29
REMARK   13  A    between atoms: _29  and  _30
REMARK   14  A    between atoms: _29  and  _32
REMARK   15  A    between atoms: _32  and  _33
REMARK   16  A    between atoms: _33  and  _34
REMARK   17  A    between atoms: _36  and  _38
REMARK   18  A    between atoms: _38  and  _39
REMARK   19  A    between atoms: _38  and  _41
REMARK   20  A    between atoms: _41  and  _42
REMARK   21  A    between atoms: _44  and  _46
REMARK   22  A    between atoms: _46  and  _47
REMARK   23  A    between atoms: _46  and  _49
REMARK   24  A    between atoms: _49  and  _50
REMARK   25  A    between atoms: _52  and  _54
REMARK   26  A    between atoms: _54  and  _55
REMARK   27  A    between atoms: _54  and  _57
REMARK   28  A    between atoms: _57  and  _58
REMARK   29  A    between atoms: _61  and  _63
REMARK   30  A    between atoms: _63  and  _64
REMARK   31  A    between atoms: _66  and  _68
REMARK   32  A    between atoms: _68  and  _69
REMARK   33  A    between atoms: _72  and  _74
REMARK   34  A    between atoms: _74  and  _75
REMARK   35  A    between atoms: _74  and  _77
REMARK   36  A    between atoms: _77  and  _78
REMARK   37  A    between atoms: _78  and  _79
REMARK   38  A    between atoms: _82  and  _84
REMARK   39  A    between atoms: _84  and  _85
REMARK   40  A    between atoms: _84  and  _87
REMARK   41  A    between atoms: _87  and  _88
REMARK   42  A    between atoms: _90  and  _92
REMARK   43  A    between atoms: _92  and  _93
REMARK   44  A    between atoms: _92  and  _95
REMARK   45  A    between atoms: _95  and  _96
REMARK   46  A    between atoms: _101  and  _103
REMARK   47  A    between atoms: _103  and  _104
REMARK   48  A    between atoms: _103  and  _106
REMARK   49  A    between atoms: _106  and  _107
REMARK   50  A    between atoms: _107  and  _108
REMARK   51  A    between atoms: _111  and  _113
REMARK   52  A    between atoms: _113  and  _114
REMARK   53  A    between atoms: _113  and  _116
REMARK   54  A    between atoms: _116  and  _117
REMARK   55  A    between atoms: _119  and  _121
REMARK   56  A    between atoms: _121  and  _122
REMARK   57  A    between atoms: _121  and  _124
REMARK   58  A    between atoms: _124  and  _125
REMARK   59  A    between atoms: _135  and  _137
REMARK   60  A    between atoms: _137  and  _138
REMARK   61  A    between atoms: _137  and  _140
REMARK   62  A    between atoms: _140  and  _141
REMARK   63  A    between atoms: _146  and  _148
REMARK   64  A    between atoms: _148  and  _149
REMARK   65  A    between atoms: _151  and  _153
REMARK   66  A    between atoms: _153  and  _154
REMARK   67  A    between atoms: _153  and  _156
REMARK   68  A    between atoms: _156  and  _157
REMARK   69  A    between atoms: _157  and  _158
REMARK   70  A    between atoms: _160  and  _162
REMARK   71  A    between atoms: _162  and  _163
REMARK   72  A    between atoms: _162  and  _165
REMARK   73  A    between atoms: _165  and  _166
REMARK   74  A    between atoms: _169  and  _171
REMARK   75  A    between atoms: _171  and  _172
REMARK   76  A    between atoms: _175  and  _177
REMARK   77  A    between atoms: _177  and  _178
REMARK   78  A    between atoms: _177  and  _180
REMARK   79  A    between atoms: _180  and  _181
REMARK   80  A    between atoms: _184  and  _186
REMARK   81  A    between atoms: _186  and  _187
REMARK   82  A    between atoms: _186  and  _189
REMARK   83  A    between atoms: _189  and  _190
REMARK   84  A    between atoms: _193  and  _195
REMARK   85  A    between atoms: _195  and  _196
REMARK   86  A    between atoms: _199  and  _201
REMARK   87  A    between atoms: _201  and  _202
REMARK   88  A    between atoms: _201  and  _204
REMARK   89  A    between atoms: _204  and  _205
REMARK   90  A    between atoms: _205  and  _206
REMARK   91  A    between atoms: _210  and  _211
REMARK   92  A    between atoms: _216  and  _218
REMARK   93  A    between atoms: _218  and  _219
REMARK   94  A    between atoms: _218  and  _221
REMARK   95  A    between atoms: _221  and  _222
REMARK   96  A    between atoms: _225  and  _227
REMARK   97  A    between atoms: _227  and  _228
REMARK   98  A    between atoms: _227  and  _230
REMARK   99  A    between atoms: _230  and  _231
REMARK  100  A    between atoms: _234  and  _236
REMARK  101  A    between atoms: _236  and  _237
REMARK  102  A    between atoms: _236  and  _239
REMARK  103  A    between atoms: _239  and  _240
REMARK  104  A    between atoms: _242  and  _244
REMARK  105  A    between atoms: _244  and  _245
REMARK  106  A    between atoms: _244  and  _247
REMARK  107  A    between atoms: _247  and  _248
REMARK  108  A    between atoms: _250  and  _252
REMARK  109  A    between atoms: _252  and  _253
REMARK  110  A    between atoms: _255  and  _257
REMARK  111  A    between atoms: _257  and  _258
REMARK  112  A    between atoms: _260  and  _262
REMARK  113  A    between atoms: _262  and  _263
REMARK  114  A    between atoms: _262  and  _265
REMARK  115  A    between atoms: _265  and  _266
REMARK  116  A    between atoms: _269  and  _271
REMARK  117  A    between atoms: _271  and  _272
REMARK  118  A    between atoms: _271  and  _274
REMARK  119  A    between atoms: _274  and  _275
REMARK  120  A    between atoms: _275  and  _276
REMARK  121  A    between atoms: _279  and  _281
REMARK  122  A    between atoms: _281  and  _282
REMARK  123  A    between atoms: _285  and  _287
REMARK  124  A    between atoms: _287  and  _288
REMARK  125  A    between atoms: _287  and  _290
REMARK  126  A    between atoms: _290  and  _291
REMARK  127  A    between atoms: _291  and  _292
REMARK  128  A    between atoms: _297  and  _299
REMARK  129  A    between atoms: _299  and  _300
REMARK  130  A    between atoms: _299  and  _302
REMARK  131  A    between atoms: _302  and  _303
REMARK  132  A    between atoms: _306  and  _308
REMARK  133  A    between atoms: _308  and  _309
REMARK  134  A    between atoms: _311  and  _313
REMARK  135  A    between atoms: _313  and  _314
REMARK  136  A    between atoms: _313  and  _316
REMARK  137  A    between atoms: _316  and  _317
REMARK  138  A    between atoms: _320  and  _322
REMARK  139  A    between atoms: _322  and  _323
REMARK  140  A    between atoms: _322  and  _325
REMARK  141  A    between atoms: _325  and  _326
REMARK  142  A    between atoms: _329  and  _331
REMARK  143  A    between atoms: _331  and  _332
REMARK  144  A    between atoms: _331  and  _334
REMARK  145  A    between atoms: _334  and  _335
REMARK  146  A    between atoms: _337  and  _339
REMARK  147  A    between atoms: _339  and  _340
REMARK  148  A    between atoms: _339  and  _342
REMARK  149  A    between atoms: _342  and  _343
REMARK  150  A    between atoms: _343  and  _344
REMARK  151  A    between atoms: _344  and  _345
REMARK  152  A    between atoms: _345  and  _346
REMARK  153  A    between atoms: _351  and  _352
REMARK  154  A    between atoms: _357  and  _359
REMARK  155  A    between atoms: _359  and  _360
REMARK  156  A    between atoms: _359  and  _362
REMARK  157  A    between atoms: _362  and  _363
REMARK  158  A    between atoms: _366  and  _368
REMARK  159  A    between atoms: _368  and  _369
REMARK  160  A    between atoms: _372  and  _374
REMARK  161  A    between atoms: _374  and  _375
REMARK  162  A    between atoms: _374  and  _377
REMARK  163  A    between atoms: _377  and  _378
REMARK  164  A    between atoms: _383  and  _385
REMARK  165  A    between atoms: _385  and  _386
REMARK  166  A    between atoms: _385  and  _388
REMARK  167  A    between atoms: _391  and  _393
REMARK  168  A    between atoms: _393  and  _394
REMARK  169  A    between atoms: _393  and  _396
REMARK  170  A    between atoms: _396  and  _397
REMARK  171  A    between atoms: _397  and  _398
REMARK  172  A    between atoms: _398  and  _399
REMARK  173  A    between atoms: _408  and  _410
REMARK  174  A    between atoms: _410  and  _411
REMARK  175  A    between atoms: _410  and  _413
REMARK  176  A    between atoms: _413  and  _414
REMARK  177  A    between atoms: _419  and  _421
REMARK  178  A    between atoms: _421  and  _422
REMARK  179  A    between atoms: _421  and  _424
REMARK  180  A    between atoms: _424  and  _425
REMARK  181  A    between atoms: _431  and  _433
REMARK  182  A    between atoms: _433  and  _434
REMARK  183  A    between atoms: _433  and  _436
REMARK  184  A    between atoms: _436  and  _437
REMARK  185  A    between atoms: _439  and  _441
REMARK  186  A    between atoms: _441  and  _442
REMARK  187  A    between atoms: _441  and  _444
REMARK  188  A    between atoms: _444  and  _445
REMARK  189  A    between atoms: _445  and  _446
REMARK  190  A    between atoms: _449  and  _451
REMARK  191  A    between atoms: _451  and  _452
REMARK  192  A    between atoms: _451  and  _454
REMARK  193  A    between atoms: _454  and  _455
REMARK  194  A    between atoms: _458  and  _460
REMARK  195  A    between atoms: _460  and  _461
REMARK  196  A    between atoms: _460  and  _463
REMARK  197  A    between atoms: _463  and  _464
REMARK  198  A    between atoms: _466  and  _468
REMARK  199  A    between atoms: _468  and  _469
REMARK  200  A    between atoms: _468  and  _471
REMARK  201  A    between atoms: _471  and  _472
REMARK  202  A    between atoms: _472  and  _473
REMARK  203  A    between atoms: _476  and  _478
REMARK  204  A    between atoms: _478  and  _479
REMARK  205  A    between atoms: _478  and  _481
REMARK  206  A    between atoms: _481  and  _482
REMARK  207  A    between atoms: _488  and  _490
REMARK  208  A    between atoms: _490  and  _491
REMARK  209  A    between atoms: _490  and  _493
REMARK  210  A    between atoms: _493  and  _494
REMARK  211  A    between atoms: _499  and  _500
REMARK  212  A    between atoms: _502  and  _504
REMARK  213  A    between atoms: _504  and  _505
REMARK  214  A    between atoms: _504  and  _507
REMARK  215  A    between atoms: _507  and  _508
REMARK  216  A    between atoms: _511  and  _513
REMARK  217  A    between atoms: _513  and  _514
REMARK  218  A    between atoms: _513  and  _516
REMARK  219  A    between atoms: _516  and  _517
REMARK  220  A    between atoms: _520  and  _522
REMARK  221  A    between atoms: _522  and  _523
REMARK  222  A    between atoms: _522  and  _525
REMARK  223  A    between atoms: _525  and  _526
REMARK  224  A    between atoms: _531  and  _533
REMARK  225  A    between atoms: _533  and  _534
REMARK  226  A    between atoms: _533  and  _536
REMARK                            x       y       z     vdW  Elec       q    Type
REMARK                         _______ _______ _______ _____ _____    ______ ____
ROOT
ATOM      1  O   HOH     1      22.919  49.761  18.010  0.00  0.00    +0.000 OA
ENDROOT
TORSDOF 0
REMARK  Name = ../refined-set-2016/1m0q/1m0q_pocket.pdb
REMARK  226 active torsions:
REMARK  status: ('A' for Active; 'I' for Inactive)
REMARK    1  A    between atoms: _1  and  _3
REMARK    2  A    between atoms: _3  and  _4
REMARK    3  A    between atoms: _3  and  _6
REMARK    4  A    between atoms: _6  and  _7
REMARK    5  A    between atoms: _10  and  _12
REMARK    6  A    between atoms: _12  and  _13
REMARK    7  A    between atoms: _15  and  _17
REMARK    8  A    between atoms: _17  and  _18
REMARK    9  A    between atoms: _17  and  _20
REMARK   10  A    between atoms: _20  and  _21
REMARK   11  A    between atoms: _21  and  _22
REMARK   12  A    between atoms: _27  and  _29
REMARK   13  A    between atoms: _29  and  _30
REMARK   14  A    between atoms: _29  and  _32
REMARK   15  A    between atoms: _32  and  _33
REMARK   16  A    between atoms: _33  and  _34
REMARK   17  A    between atoms: _36  and  _38
REMARK   18  A    between atoms: _38  and  _39
REMARK   19  A    between atoms: _38  and  _41
REMARK   20  A    between atoms: _41  and  _42
REMARK   21  A    between atoms: _44  and  _46
REMARK   22  A    between atoms: _46  and  _47
REMARK   23  A    between atoms: _46  and  _49
REMARK   24  A    between atoms: _49  and  _50
REMARK   25  A    between atoms: _52  and  _54
REMARK   26  A    between atoms: _54  and  _55
REMARK   27  A    between atoms: _54  and  _57
REMARK   28  A    between atoms: _57  and  _58
REMARK   29  A    between atoms: _61  and  _63
REMARK   30  A    between atoms: _63  and  _64
REMARK   31  A    between atoms: _66  and  _68
REMARK   32  A    between atoms: _68  and  _69
REMARK   33  A    between atoms: _72  and  _74
REMARK   34  A    between atoms: _74  and  _75
REMARK   35  A    between atoms: _74  and  _77
REMARK   36  A    between atoms: _77  and  _78
REMARK   37  A    between atoms: _78  and  _79
REMARK   38  A    between atoms: _82  and  _84
REMARK   39  A    between atoms: _84  and  _85
REMARK   40  A    between atoms: _84  and  _87
REMARK   41  A    between atoms: _87  and  _88
REMARK   42  A    between atoms: _90  and  _92
REMARK   43  A    between atoms: _92  and  _93
REMARK   44  A    between atoms: _92  and  _95
REMARK   45  A    between atoms: _95  and  _96
REMARK   46  A    between atoms: _101  and  _103
REMARK   47  A    between atoms: _103  and  _104
REMARK   48  A    between atoms: _103  and  _106
REMARK   49  A    between atoms: _106  and  _107
REMARK   50  A    between atoms: _107  and  _108
REMARK   51  A    between atoms: _111  and  _113
REMARK   52  A    between atoms: _113  and  _114
REMARK   53  A    between atoms: _113  and  _116
REMARK   54  A    between atoms: _116  and  _117
REMARK   55  A    between atoms: _119  and  _121
REMARK   56  A    between atoms: _121  and  _122
REMARK   57  A    between atoms: _121  and  _124
REMARK   58  A    between atoms: _124  and  _125
REMARK   59  A    between atoms: _135  and  _137
REMARK   60  A    between atoms: _137  and  _138
REMARK   61  A    between atoms: _137  and  _140
REMARK   62  A    between atoms: _140  and  _141
REMARK   63  A    between atoms: _146  and  _148
REMARK   64  A    between atoms: _148  and  _149
REMARK   65  A    between atoms: _151  and  _153
REMARK   66  A    between atoms: _153  and  _154
REMARK   67  A    between atoms: _153  and  _156
REMARK   68  A    between atoms: _156  and  _157
REMARK   69  A    between atoms: _157  and  _158
REMARK   70  A    between atoms: _160  and  _162
REMARK   71  A    between atoms: _162  and  _163
REMARK   72  A    between atoms: _162  and  _165
REMARK   73  A    between atoms: _165  and  _166
REMARK   74  A    between atoms: _169  and  _171
REMARK   75  A    between atoms: _171  and  _172
REMARK   76  A    between atoms: _175  and  _177
REMARK   77  A    between atoms: _177  and  _178
REMARK   78  A    between atoms: _177  and  _180
REMARK   79  A    between atoms: _180  and  _181
REMARK   80  A    between atoms: _184  and  _186
REMARK   81  A    between atoms: _186  and  _187
REMARK   82  A    between atoms: _186  and  _189
REMARK   83  A    between atoms: _189  and  _190
REMARK   84  A    between atoms: _193  and  _195
REMARK   85  A    between atoms: _195  and  _196
REMARK   86  A    between atoms: _199  and  _201
REMARK   87  A    between atoms: _201  and  _202
REMARK   88  A    between atoms: _201  and  _204
REMARK   89  A    between atoms: _204  and  _205
REMARK   90  A    between atoms: _205  and  _206
REMARK   91  A    between atoms: _210  and  _211
REMARK   92  A    between atoms: _216  and  _218
REMARK   93  A    between atoms: _218  and  _219
REMARK   94  A    between atoms: _218  and  _221
REMARK   95  A    between atoms: _221  and  _222
REMARK   96  A    between atoms: _225  and  _227
REMARK   97  A    between atoms: _227  and  _228
REMARK   98  A    between atoms: _227  and  _230
REMARK   99  A    between atoms: _230  and  _231
REMARK  100  A    between atoms: _234  and  _236
REMARK  101  A    between atoms: _236  and  _237
REMARK  102  A    between atoms: _236  and  _239
REMARK  103  A    between atoms: _239  and  _240
REMARK  104  A    between atoms: _242  and  _244
REMARK  105  A    between atoms: _244  and  _245
REMARK  106  A    between atoms: _244  and  _247
REMARK  107  A    between atoms: _247  and  _248
REMARK  108  A    between atoms: _250  and  _252
REMARK  109  A    between atoms: _252  and  _253
REMARK  110  A    between atoms: _255  and  _257
REMARK  111  A    between atoms: _257  and  _258
REMARK  112  A    between atoms: _260  and  _262
REMARK  113  A    between atoms: _262  and  _263
REMARK  114  A    between atoms: _262  and  _265
REMARK  115  A    between atoms: _265  and  _266
REMARK  116  A    between atoms: _269  and  _271
REMARK  117  A    between atoms: _271  and  _272
REMARK  118  A    between atoms: _271  and  _274
REMARK  119  A    between atoms: _274  and  _275
REMARK  120  A    between atoms: _275  and  _276
REMARK  121  A    between atoms: _279  and  _281
REMARK  122  A    between atoms: _281  and  _282
REMARK  123  A    between atoms: _285  and  _287
REMARK  124  A    between atoms: _287  and  _288
REMARK  125  A    between atoms: _287  and  _290
REMARK  126  A    between atoms: _290  and  _291
REMARK  127  A    between atoms: _291  and  _292
REMARK  128  A    between atoms: _297  and  _299
REMARK  129  A    between atoms: _299  and  _300
REMARK  130  A    between atoms: _299  and  _302
REMARK  131  A    between atoms: _302  and  _303
REMARK  132  A    between atoms: _306  and  _308
REMARK  133  A    between atoms: _308  and  _309
REMARK  134  A    between atoms: _311  and  _313
REMARK  135  A    between atoms: _313  and  _314
REMARK  136  A    between atoms: _313  and  _316
REMARK  137  A    between atoms: _316  and  _317
REMARK  138  A    between atoms: _320  and  _322
REMARK  139  A    between atoms: _322  and  _323
REMARK  140  A    between atoms: _322  and  _325
REMARK  141  A    between atoms: _325  and  _326
REMARK  142  A    between atoms: _329  and  _331
REMARK  143  A    between atoms: _331  and  _332
REMARK  144  A    between atoms: _331  and  _334
REMARK  145  A    between atoms: _334  and  _335
REMARK  146  A    between atoms: _337  and  _339
REMARK  147  A    between atoms: _339  and  _340
REMARK  148  A    between atoms: _339  and  _342
REMARK  149  A    between atoms: _342  and  _343
REMARK  150  A    between atoms: _343  and  _344
REMARK  151  A    between atoms: _344  and  _345
REMARK  152  A    between atoms: _345  and  _346
REMARK  153  A    between atoms: _351  and  _352
REMARK  154  A    between atoms: _357  and  _359
REMARK  155  A    between atoms: _359  and  _360
REMARK  156  A    between atoms: _359  and  _362
REMARK  157  A    between atoms: _362  and  _363
REMARK  158  A    between atoms: _366  and  _368
REMARK  159  A    between atoms: _368  and  _369
REMARK  160  A    between atoms: _372  and  _374
REMARK  161  A    between atoms: _374  and  _375
REMARK  162  A    between atoms: _374  and  _377
REMARK  163  A    between atoms: _377  and  _378
REMARK  164  A    between atoms: _383  and  _385
REMARK  165  A    between atoms: _385  and  _386
REMARK  166  A    between atoms: _385  and  _388
REMARK  167  A    between atoms: _391  and  _393
REMARK  168  A    between atoms: _393  and  _394
REMARK  169  A    between atoms: _393  and  _396
REMARK  170  A    between atoms: _396  and  _397
REMARK  171  A    between atoms: _397  and  _398
REMARK  172  A    between atoms: _398  and  _399
REMARK  173  A    between atoms: _408  and  _410
REMARK  174  A    between atoms: _410  and  _411
REMARK  175  A    between atoms: _410  and  _413
REMARK  176  A    between atoms: _413  and  _414
REMARK  177  A    between atoms: _419  and  _421
REMARK  178  A    between atoms: _421  and  _422
REMARK  179  A    between atoms: _421  and  _424
REMARK  180  A    between atoms: _424  and  _425
REMARK  181  A    between atoms: _431  and  _433
REMARK  182  A    between atoms: _433  and  _434
REMARK  183  A    between atoms: _433  and  _436
REMARK  184  A    between atoms: _436  and  _437
REMARK  185  A    between atoms: _439  and  _441
REMARK  186  A    between atoms: _441  and  _442
REMARK  187  A    between atoms: _441  and  _444
REMARK  188  A    between atoms: _444  and  _445
REMARK  189  A    between atoms: _445  and  _446
REMARK  190  A    between atoms: _449  and  _451
REMARK  191  A    between atoms: _451  and  _452
REMARK  192  A    between atoms: _451  and  _454
REMARK  193  A    between atoms: _454  and  _455
REMARK  194  A    between atoms: _458  and  _460
REMARK  195  A    between atoms: _460  and  _461
REMARK  196  A    between atoms: _460  and  _463
REMARK  197  A    between atoms: _463  and  _464
REMARK  198  A    between atoms: _466  and  _468
REMARK  199  A    between atoms: _468  and  _469
REMARK  200  A    between atoms: _468  and  _471
REMARK  201  A    between atoms: _471  and  _472
REMARK  202  A    between atoms: _472  and  _473
REMARK  203  A    between atoms: _476  and  _478
REMARK  204  A    between atoms: _478  and  _479
REMARK  205  A    between atoms: _478  and  _481
REMARK  206  A    between atoms: _481  and  _482
REMARK  207  A    between atoms: _488  and  _490
REMARK  208  A    between atoms: _490  and  _491
REMARK  209  A    between atoms: _490  and  _493
REMARK  210  A    between atoms: _493  and  _494
REMARK  211  A    between atoms: _499  and  _500
REMARK  212  A    between atoms: _502  and  _504
REMARK  213  A    between atoms: _504  and  _505
REMARK  214  A    between atoms: _504  and  _507
REMARK  215  A    between atoms: _507  and  _508
REMARK  216  A    between atoms: _511  and  _513
REMARK  217  A    between atoms: _513  and  _514
REMARK  218  A    between atoms: _513  and  _516
REMARK  219  A    between atoms: _516  and  _517
REMARK  220  A    between atoms: _520  and  _522
REMARK  221  A    between atoms: _522  and  _523
REMARK  222  A    between atoms: _522  and  _525
REMARK  223  A    between atoms: _525  and  _526
REMARK  224  A    between atoms: _531  and  _533
REMARK  225  A    between atoms: _533  and  _534
REMARK  226  A    between atoms: _533  and  _536
REMARK                            x       y       z     vdW  Elec       q    Type
REMARK                         _______ _______ _______ _____ _____    ______ ____
ROOT
ATOM      1  O   HOH     1      11.684  54.997  13.662  0.00  0.00    +0.000 OA
ENDROOT
TORSDOF 0
REMARK  Name = ../refined-set-2016/1m0q/1m0q_pocket.pdb
REMARK  226 active torsions:
REMARK  status: ('A' for Active; 'I' for Inactive)
REMARK    1  A    between atoms: _1  and  _3
REMARK    2  A    between atoms: _3  and  _4
REMARK    3  A    between atoms: _3  and  _6
REMARK    4  A    between atoms: _6  and  _7
REMARK    5  A    between atoms: _10  and  _12
REMARK    6  A    between atoms: _12  and  _13
REMARK    7  A    between atoms: _15  and  _17
REMARK    8  A    between atoms: _17  and  _18
REMARK    9  A    between atoms: _17  and  _20
REMARK   10  A    between atoms: _20  and  _21
REMARK   11  A    between atoms: _21  and  _22
REMARK   12  A    between atoms: _27  and  _29
REMARK   13  A    between atoms: _29  and  _30
REMARK   14  A    between atoms: _29  and  _32
REMARK   15  A    between atoms: _32  and  _33
REMARK   16  A    between atoms: _33  and  _34
REMARK   17  A    between atoms: _36  and  _38
REMARK   18  A    between atoms: _38  and  _39
REMARK   19  A    between atoms: _38  and  _41
REMARK   20  A    between atoms: _41  and  _42
REMARK   21  A    between atoms: _44  and  _46
REMARK   22  A    between atoms: _46  and  _47
REMARK   23  A    between atoms: _46  and  _49
REMARK   24  A    between atoms: _49  and  _50
REMARK   25  A    between atoms: _52  and  _54
REMARK   26  A    between atoms: _54  and  _55
REMARK   27  A    between atoms: _54  and  _57
REMARK   28  A    between atoms: _57  and  _58
REMARK   29  A    between atoms: _61  and  _63
REMARK   30  A    between atoms: _63  and  _64
REMARK   31  A    between atoms: _66  and  _68
REMARK   32  A    between atoms: _68  and  _69
REMARK   33  A    between atoms: _72  and  _74
REMARK   34  A    between atoms: _74  and  _75
REMARK   35  A    between atoms: _74  and  _77
REMARK   36  A    between atoms: _77  and  _78
REMARK   37  A    between atoms: _78  and  _79
REMARK   38  A    between atoms: _82  and  _84
REMARK   39  A    between atoms: _84  and  _85
REMARK   40  A    between atoms: _84  and  _87
REMARK   41  A    between atoms: _87  and  _88
REMARK   42  A    between atoms: _90  and  _92
REMARK   43  A    between atoms: _92  and  _93
REMARK   44  A    between atoms: _92  and  _95
REMARK   45  A    between atoms: _95  and  _96
REMARK   46  A    between atoms: _101  and  _103
REMARK   47  A    between atoms: _103  and  _104
REMARK   48  A    between atoms: _103  and  _106
REMARK   49  A    between atoms: _106  and  _107
REMARK   50  A    between atoms: _107  and  _108
REMARK   51  A    between atoms: _111  and  _113
REMARK   52  A    between atoms: _113  and  _114
REMARK   53  A    between atoms: _113  and  _116
REMARK   54  A    between atoms: _116  and  _117
REMARK   55  A    between atoms: _119  and  _121
REMARK   56  A    between atoms: _121  and  _122
REMARK   57  A    between atoms: _121  and  _124
REMARK   58  A    between atoms: _124  and  _125
REMARK   59  A    between atoms: _135  and  _137
REMARK   60  A    between atoms: _137  and  _138
REMARK   61  A    between atoms: _137  and  _140
REMARK   62  A    between atoms: _140  and  _141
REMARK   63  A    between atoms: _146  and  _148
REMARK   64  A    between atoms: _148  and  _149
REMARK   65  A    between atoms: _151  and  _153
REMARK   66  A    between atoms: _153  and  _154
REMARK   67  A    between atoms: _153  and  _156
REMARK   68  A    between atoms: _156  and  _157
REMARK   69  A    between atoms: _157  and  _158
REMARK   70  A    between atoms: _160  and  _162
REMARK   71  A    between atoms: _162  and  _163
REMARK   72  A    between atoms: _162  and  _165
REMARK   73  A    between atoms: _165  and  _166
REMARK   74  A    between atoms: _169  and  _171
REMARK   75  A    between atoms: _171  and  _172
REMARK   76  A    between atoms: _175  and  _177
REMARK   77  A    between atoms: _177  and  _178
REMARK   78  A    between atoms: _177  and  _180
REMARK   79  A    between atoms: _180  and  _181
REMARK   80  A    between atoms: _184  and  _186
REMARK   81  A    between atoms: _186  and  _187
REMARK   82  A    between atoms: _186  and  _189
REMARK   83  A    between atoms: _189  and  _190
REMARK   84  A    between atoms: _193  and  _195
REMARK   85  A    between atoms: _195  and  _196
REMARK   86  A    between atoms: _199  and  _201
REMARK   87  A    between atoms: _201  and  _202
REMARK   88  A    between atoms: _201  and  _204
REMARK   89  A    between atoms: _204  and  _205
REMARK   90  A    between atoms: _205  and  _206
REMARK   91  A    between atoms: _210  and  _211
REMARK   92  A    between atoms: _216  and  _218
REMARK   93  A    between atoms: _218  and  _219
REMARK   94  A    between atoms: _218  and  _221
REMARK   95  A    between atoms: _221  and  _222
REMARK   96  A    between atoms: _225  and  _227
REMARK   97  A    between atoms: _227  and  _228
REMARK   98  A    between atoms: _227  and  _230
REMARK   99  A    between atoms: _230  and  _231
REMARK  100  A    between atoms: _234  and  _236
REMARK  101  A    between atoms: _236  and  _237
REMARK  102  A    between atoms: _236  and  _239
REMARK  103  A    between atoms: _239  and  _240
REMARK  104  A    between atoms: _242  and  _244
REMARK  105  A    between atoms: _244  and  _245
REMARK  106  A    between atoms: _244  and  _247
REMARK  107  A    between atoms: _247  and  _248
REMARK  108  A    between atoms: _250  and  _252
REMARK  109  A    between atoms: _252  and  _253
REMARK  110  A    between atoms: _255  and  _257
REMARK  111  A    between atoms: _257  and  _258
REMARK  112  A    between atoms: _260  and  _262
REMARK  113  A    between atoms: _262  and  _263
REMARK  114  A    between atoms: _262  and  _265
REMARK  115  A    between atoms: _265  and  _266
REMARK  116  A    between atoms: _269  and  _271
REMARK  117  A    between atoms: _271  and  _272
REMARK  118  A    between atoms: _271  and  _274
REMARK  119  A    between atoms: _274  and  _275
REMARK  120  A    between atoms: _275  and  _276
REMARK  121  A    between atoms: _279  and  _281
REMARK  122  A    between atoms: _281  and  _282
REMARK  123  A    between atoms: _285  and  _287
REMARK  124  A    between atoms: _287  and  _288
REMARK  125  A    between atoms: _287  and  _290
REMARK  126  A    between atoms: _290  and  _291
REMARK  127  A    between atoms: _291  and  _292
REMARK  128  A    between atoms: _297  and  _299
REMARK  129  A    between atoms: _299  and  _300
REMARK  130  A    between atoms: _299  and  _302
REMARK  131  A    between atoms: _302  and  _303
REMARK  132  A    between atoms: _306  and  _308
REMARK  133  A    between atoms: _308  and  _309
REMARK  134  A    between atoms: _311  and  _313
REMARK  135  A    between atoms: _313  and  _314
REMARK  136  A    between atoms: _313  and  _316
REMARK  137  A    between atoms: _316  and  _317
REMARK  138  A    between atoms: _320  and  _322
REMARK  139  A    between atoms: _322  and  _323
REMARK  140  A    between atoms: _322  and  _325
REMARK  141  A    between atoms: _325  and  _326
REMARK  142  A    between atoms: _329  and  _331
REMARK  143  A    between atoms: _331  and  _332
REMARK  144  A    between atoms: _331  and  _334
REMARK  145  A    between atoms: _334  and  _335
REMARK  146  A    between atoms: _337  and  _339
REMARK  147  A    between atoms: _339  and  _340
REMARK  148  A    between atoms: _339  and  _342
REMARK  149  A    between atoms: _342  and  _343
REMARK  150  A    between atoms: _343  and  _344
REMARK  151  A    between atoms: _344  and  _345
REMARK  152  A    between atoms: _345  and  _346
REMARK  153  A    between atoms: _351  and  _352
REMARK  154  A    between atoms: _357  and  _359
REMARK  155  A    between atoms: _359  and  _360
REMARK  156  A    between atoms: _359  and  _362
REMARK  157  A    between atoms: _362  and  _363
REMARK  158  A    between atoms: _366  and  _368
REMARK  159  A    between atoms: _368  and  _369
REMARK  160  A    between atoms: _372  and  _374
REMARK  161  A    between atoms: _374  and  _375
REMARK  162  A    between atoms: _374  and  _377
REMARK  163  A    between atoms: _377  and  _378
REMARK  164  A    between atoms: _383  and  _385
REMARK  165  A    between atoms: _385  and  _386
REMARK  166  A    between atoms: _385  and  _388
REMARK  167  A    between atoms: _391  and  _393
REMARK  168  A    between atoms: _393  and  _394
REMARK  169  A    between atoms: _393  and  _396
REMARK  170  A    between atoms: _396  and  _397
REMARK  171  A    between atoms: _397  and  _398
REMARK  172  A    between atoms: _398  and  _399
REMARK  173  A    between atoms: _408  and  _410
REMARK  174  A    between atoms: _410  and  _411
REMARK  175  A    between atoms: _410  and  _413
REMARK  176  A    between atoms: _413  and  _414
REMARK  177  A    between atoms: _419  and  _421
REMARK  178  A    between atoms: _421  and  _422
REMARK  179  A    between atoms: _421  and  _424
REMARK  180  A    between atoms: _424  and  _425
REMARK  181  A    between atoms: _431  and  _433
REMARK  182  A    between atoms: _433  and  _434
REMARK  183  A    between atoms: _433  and  _436
REMARK  184  A    between atoms: _436  and  _437
REMARK  185  A    between atoms: _439  and  _441
REMARK  186  A    between atoms: _441  and  _442
REMARK  187  A    between atoms: _441  and  _444
REMARK  188  A    between atoms: _444  and  _445
REMARK  189  A    between atoms: _445  and  _446
REMARK  190  A    between atoms: _449  and  _451
REMARK  191  A    between atoms: _451  and  _452
REMARK  192  A    between atoms: _451  and  _454
REMARK  193  A    between atoms: _454  and  _455
REMARK  194  A    between atoms: _458  and  _460
REMARK  195  A    between atoms: _460  and  _461
REMARK  196  A    between atoms: _460  and  _463
REMARK  197  A    between atoms: _463  and  _464
REMARK  198  A    between atoms: _466  and  _468
REMARK  199  A    between atoms: _468  and  _469
REMARK  200  A    between atoms: _468  and  _471
REMARK  201  A    between atoms: _471  and  _472
REMARK  202  A    between atoms: _472  and  _473
REMARK  203  A    between atoms: _476  and  _478
REMARK  204  A    between atoms: _478  and  _479
REMARK  205  A    between atoms: _478  and  _481
REMARK  206  A    between atoms: _481  and  _482
REMARK  207  A    between atoms: _488  and  _490
REMARK  208  A    between atoms: _490  and  _491
REMARK  209  A    between atoms: _490  and  _493
REMARK  210  A    between atoms: _493  and  _494
REMARK  211  A    between atoms: _499  and  _500
REMARK  212  A    between atoms: _502  and  _504
REMARK  213  A    between atoms: _504  and  _505
REMARK  214  A    between atoms: _504  and  _507
REMARK  215  A    between atoms: _507  and  _508
REMARK  216  A    between atoms: _511  and  _513
REMARK  217  A    between atoms: _513  and  _514
REMARK  218  A    between atoms: _513  and  _516
REMARK  219  A    between atoms: _516  and  _517
REMARK  220  A    between atoms: _520  and  _522
REMARK  221  A    between atoms: _522  and  _523
REMARK  222  A    between atoms: _522  and  _525
REMARK  223  A    between atoms: _525  and  _526
REMARK  224  A    between atoms: _531  and  _533
REMARK  225  A    between atoms: _533  and  _534
REMARK  226  A    between atoms: _533  and  _536
REMARK                            x       y       z     vdW  Elec       q    Type
REMARK                         _______ _______ _______ _____ _____    ______ ____
ROOT
ATOM      1  O   HOH     1      20.210  44.448  17.619  0.00  0.00    +0.000 OA
ENDROOT
TORSDOF 0
REMARK  Name = ../refined-set-2016/1m0q/1m0q_pocket.pdb
REMARK  226 active torsions:
REMARK  status: ('A' for Active; 'I' for Inactive)
REMARK    1  A    between atoms: _1  and  _3
REMARK    2  A    between atoms: _3  and  _4
REMARK    3  A    between atoms: _3  and  _6
REMARK    4  A    between atoms: _6  and  _7
REMARK    5  A    between atoms: _10  and  _12
REMARK    6  A    between atoms: _12  and  _13
REMARK    7  A    between atoms: _15  and  _17
REMARK    8  A    between atoms: _17  and  _18
REMARK    9  A    between atoms: _17  and  _20
REMARK   10  A    between atoms: _20  and  _21
REMARK   11  A    between atoms: _21  and  _22
REMARK   12  A    between atoms: _27  and  _29
REMARK   13  A    between atoms: _29  and  _30
REMARK   14  A    between atoms: _29  and  _32
REMARK   15  A    between atoms: _32  and  _33
REMARK   16  A    between atoms: _33  and  _34
REMARK   17  A    between atoms: _36  and  _38
REMARK   18  A    between atoms: _38  and  _39
REMARK   19  A    between atoms: _38  and  _41
REMARK   20  A    between atoms: _41  and  _42
REMARK   21  A    between atoms: _44  and  _46
REMARK   22  A    between atoms: _46  and  _47
REMARK   23  A    between atoms: _46  and  _49
REMARK   24  A    between atoms: _49  and  _50
REMARK   25  A    between atoms: _52  and  _54
REMARK   26  A    between atoms: _54  and  _55
REMARK   27  A    between atoms: _54  and  _57
REMARK   28  A    between atoms: _57  and  _58
REMARK   29  A    between atoms: _61  and  _63
REMARK   30  A    between atoms: _63  and  _64
REMARK   31  A    between atoms: _66  and  _68
REMARK   32  A    between atoms: _68  and  _69
REMARK   33  A    between atoms: _72  and  _74
REMARK   34  A    between atoms: _74  and  _75
REMARK   35  A    between atoms: _74  and  _77
REMARK   36  A    between atoms: _77  and  _78
REMARK   37  A    between atoms: _78  and  _79
REMARK   38  A    between atoms: _82  and  _84
REMARK   39  A    between atoms: _84  and  _85
REMARK   40  A    between atoms: _84  and  _87
REMARK   41  A    between atoms: _87  and  _88
REMARK   42  A    between atoms: _90  and  _92
REMARK   43  A    between atoms: _92  and  _93
REMARK   44  A    between atoms: _92  and  _95
REMARK   45  A    between atoms: _95  and  _96
REMARK   46  A    between atoms: _101  and  _103
REMARK   47  A    between atoms: _103  and  _104
REMARK   48  A    between atoms: _103  and  _106
REMARK   49  A    between atoms: _106  and  _107
REMARK   50  A    between atoms: _107  and  _108
REMARK   51  A    between atoms: _111  and  _113
REMARK   52  A    between atoms: _113  and  _114
REMARK   53  A    between atoms: _113  and  _116
REMARK   54  A    between atoms: _116  and  _117
REMARK   55  A    between atoms: _119  and  _121
REMARK   56  A    between atoms: _121  and  _122
REMARK   57  A    between atoms: _121  and  _124
REMARK   58  A    between atoms: _124  and  _125
REMARK   59  A    between atoms: _135  and  _137
REMARK   60  A    between atoms: _137  and  _138
REMARK   61  A    between atoms: _137  and  _140
REMARK   62  A    between atoms: _140  and  _141
REMARK   63  A    between atoms: _146  and  _148
REMARK   64  A    between atoms: _148  and  _149
REMARK   65  A    between atoms: _151  and  _153
REMARK   66  A    between atoms: _153  and  _154
REMARK   67  A    between atoms: _153  and  _156
REMARK   68  A    between atoms: _156  and  _157
REMARK   69  A    between atoms: _157  and  _158
REMARK   70  A    between atoms: _160  and  _162
REMARK   71  A    between atoms: _162  and  _163
REMARK   72  A    between atoms: _162  and  _165
REMARK   73  A    between atoms: _165  and  _166
REMARK   74  A    between atoms: _169  and  _171
REMARK   75  A    between atoms: _171  and  _172
REMARK   76  A    between atoms: _175  and  _177
REMARK   77  A    between atoms: _177  and  _178
REMARK   78  A    between atoms: _177  and  _180
REMARK   79  A    between atoms: _180  and  _181
REMARK   80  A    between atoms: _184  and  _186
REMARK   81  A    between atoms: _186  and  _187
REMARK   82  A    between atoms: _186  and  _189
REMARK   83  A    between atoms: _189  and  _190
REMARK   84  A    between atoms: _193  and  _195
REMARK   85  A    between atoms: _195  and  _196
REMARK   86  A    between atoms: _199  and  _201
REMARK   87  A    between atoms: _201  and  _202
REMARK   88  A    between atoms: _201  and  _204
REMARK   89  A    between atoms: _204  and  _205
REMARK   90  A    between atoms: _205  and  _206
REMARK   91  A    between atoms: _210  and  _211
REMARK   92  A    between atoms: _216  and  _218
REMARK   93  A    between atoms: _218  and  _219
REMARK   94  A    between atoms: _218  and  _221
REMARK   95  A    between atoms: _221  and  _222
REMARK   96  A    between atoms: _225  and  _227
REMARK   97  A    between atoms: _227  and  _228
REMARK   98  A    between atoms: _227  and  _230
REMARK   99  A    between atoms: _230  and  _231
REMARK  100  A    between atoms: _234  and  _236
REMARK  101  A    between atoms: _236  and  _237
REMARK  102  A    between atoms: _236  and  _239
REMARK  103  A    between atoms: _239  and  _240
REMARK  104  A    between atoms: _242  and  _244
REMARK  105  A    between atoms: _244  and  _245
REMARK  106  A    between atoms: _244  and  _247
REMARK  107  A    between atoms: _247  and  _248
REMARK  108  A    between atoms: _250  and  _252
REMARK  109  A    between atoms: _252  and  _253
REMARK  110  A    between atoms: _255  and  _257
REMARK  111  A    between atoms: _257  and  _258
REMARK  112  A    between atoms: _260  and  _262
REMARK  113  A    between atoms: _262  and  _263
REMARK  114  A    between atoms: _262  and  _265
REMARK  115  A    between atoms: _265  and  _266
REMARK  116  A    between atoms: _269  and  _271
REMARK  117  A    between atoms: _271  and  _272
REMARK  118  A    between atoms: _271  and  _274
REMARK  119  A    between atoms: _274  and  _275
REMARK  120  A    between atoms: _275  and  _276
REMARK  121  A    between atoms: _279  and  _281
REMARK  122  A    between atoms: _281  and  _282
REMARK  123  A    between atoms: _285  and  _287
REMARK  124  A    between atoms: _287  and  _288
REMARK  125  A    between atoms: _287  and  _290
REMARK  126  A    between atoms: _290  and  _291
REMARK  127  A    between atoms: _291  and  _292
REMARK  128  A    between atoms: _297  and  _299
REMARK  129  A    between atoms: _299  and  _300
REMARK  130  A    between atoms: _299  and  _302
REMARK  131  A    between atoms: _302  and  _303
REMARK  132  A    between atoms: _306  and  _308
REMARK  133  A    between atoms: _308  and  _309
REMARK  134  A    between atoms: _311  and  _313
REMARK  135  A    between atoms: _313  and  _314
REMARK  136  A    between atoms: _313  and  _316
REMARK  137  A    between atoms: _316  and  _317
REMARK  138  A    between atoms: _320  and  _322
REMARK  139  A    between atoms: _322  and  _323
REMARK  140  A    between atoms: _322  and  _325
REMARK  141  A    between atoms: _325  and  _326
REMARK  142  A    between atoms: _329  and  _331
REMARK  143  A    between atoms: _331  and  _332
REMARK  144  A    between atoms: _331  and  _334
REMARK  145  A    between atoms: _334  and  _335
REMARK  146  A    between atoms: _337  and  _339
REMARK  147  A    between atoms: _339  and  _340
REMARK  148  A    between atoms: _339  and  _342
REMARK  149  A    between atoms: _342  and  _343
REMARK  150  A    between atoms: _343  and  _344
REMARK  151  A    between atoms: _344  and  _345
REMARK  152  A    between atoms: _345  and  _346
REMARK  153  A    between atoms: _351  and  _352
REMARK  154  A    between atoms: _357  and  _359
REMARK  155  A    between atoms: _359  and  _360
REMARK  156  A    between atoms: _359  and  _362
REMARK  157  A    between atoms: _362  and  _363
REMARK  158  A    between atoms: _366  and  _368
REMARK  159  A    between atoms: _368  and  _369
REMARK  160  A    between atoms: _372  and  _374
REMARK  161  A    between atoms: _374  and  _375
REMARK  162  A    between atoms: _374  and  _377
REMARK  163  A    between atoms: _377  and  _378
REMARK  164  A    between atoms: _383  and  _385
REMARK  165  A    between atoms: _385  and  _386
REMARK  166  A    between atoms: _385  and  _388
REMARK  167  A    between atoms: _391  and  _393
REMARK  168  A    between atoms: _393  and  _394
REMARK  169  A    between atoms: _393  and  _396
REMARK  170  A    between atoms: _396  and  _397
REMARK  171  A    between atoms: _397  and  _398
REMARK  172  A    between atoms: _398  and  _399
REMARK  173  A    between atoms: _408  and  _410
REMARK  174  A    between atoms: _410  and  _411
REMARK  175  A    between atoms: _410  and  _413
REMARK  176  A    between atoms: _413  and  _414
REMARK  177  A    between atoms: _419  and  _421
REMARK  178  A    between atoms: _421  and  _422
REMARK  179  A    between atoms: _421  and  _424
REMARK  180  A    between atoms: _424  and  _425
REMARK  181  A    between atoms: _431  and  _433
REMARK  182  A    between atoms: _433  and  _434
REMARK  183  A    between atoms: _433  and  _436
REMARK  184  A    between atoms: _436  and  _437
REMARK  185  A    between atoms: _439  and  _441
REMARK  186  A    between atoms: _441  and  _442
REMARK  187  A    between atoms: _441  and  _444
REMARK  188  A    between atoms: _444  and  _445
REMARK  189  A    between atoms: _445  and  _446
REMARK  190  A    between atoms: _449  and  _451
REMARK  191  A    between atoms: _451  and  _452
REMARK  192  A    between atoms: _451  and  _454
REMARK  193  A    between atoms: _454  and  _455
REMARK  194  A    between atoms: _458  and  _460
REMARK  195  A    between atoms: _460  and  _461
REMARK  196  A    between atoms: _460  and  _463
REMARK  197  A    between atoms: _463  and  _464
REMARK  198  A    between atoms: _466  and  _468
REMARK  199  A    between atoms: _468  and  _469
REMARK  200  A    between atoms: _468  and  _471
REMARK  201  A    between atoms: _471  and  _472
REMARK  202  A    between atoms: _472  and  _473
REMARK  203  A    between atoms: _476  and  _478
REMARK  204  A    between atoms: _478  and  _479
REMARK  205  A    between atoms: _478  and  _481
REMARK  206  A    between atoms: _481  and  _482
REMARK  207  A    between atoms: _488  and  _490
REMARK  208  A    between atoms: _490  and  _491
REMARK  209  A    between atoms: _490  and  _493
REMARK  210  A    between atoms: _493  and  _494
REMARK  211  A    between atoms: _499  and  _500
REMARK  212  A    between atoms: _502  and  _504
REMARK  213  A    between atoms: _504  and  _505
REMARK  214  A    between atoms: _504  and  _507
REMARK  215  A    between atoms: _507  and  _508
REMARK  216  A    between atoms: _511  and  _513
REMARK  217  A    between atoms: _513  and  _514
REMARK  218  A    between atoms: _513  and  _516
REMARK  219  A    between atoms: _516  and  _517
REMARK  220  A    between atoms: _520  and  _522
REMARK  221  A    between atoms: _522  and  _523
REMARK  222  A    between atoms: _522  and  _525
REMARK  223  A    between atoms: _525  and  _526
REMARK  224  A    between atoms: _531  and  _533
REMARK  225  A    between atoms: _533  and  _534
REMARK  226  A    between atoms: _533  and  _536
REMARK                            x       y       z     vdW  Elec       q    Type
REMARK                         _______ _______ _______ _____ _____    ______ ____
ROOT
ATOM      1  O   HOH     1      12.978  50.446  24.656  0.00  0.00    +0.000 OA
ENDROOT
TORSDOF 0
REMARK  Name = ../refined-set-2016/1m0q/1m0q_pocket.pdb
REMARK  226 active torsions:
REMARK  status: ('A' for Active; 'I' for Inactive)
REMARK    1  A    between atoms: _1  and  _3
REMARK    2  A    between atoms: _3  and  _4
REMARK    3  A    between atoms: _3  and  _6
REMARK    4  A    between atoms: _6  and  _7
REMARK    5  A    between atoms: _10  and  _12
REMARK    6  A    between atoms: _12  and  _13
REMARK    7  A    between atoms: _15  and  _17
REMARK    8  A    between atoms: _17  and  _18
REMARK    9  A    between atoms: _17  and  _20
REMARK   10  A    between atoms: _20  and  _21
REMARK   11  A    between atoms: _21  and  _22
REMARK   12  A    between atoms: _27  and  _29
REMARK   13  A    between atoms: _29  and  _30
REMARK   14  A    between atoms: _29  and  _32
REMARK   15  A    between atoms: _32  and  _33
REMARK   16  A    between atoms: _33  and  _34
REMARK   17  A    between atoms: _36  and  _38
REMARK   18  A    between atoms: _38  and  _39
REMARK   19  A    between atoms: _38  and  _41
REMARK   20  A    between atoms: _41  and  _42
REMARK   21  A    between atoms: _44  and  _46
REMARK   22  A    between atoms: _46  and  _47
REMARK   23  A    between atoms: _46  and  _49
REMARK   24  A    between atoms: _49  and  _50
REMARK   25  A    between atoms: _52  and  _54
REMARK   26  A    between atoms: _54  and  _55
REMARK   27  A    between atoms: _54  and  _57
REMARK   28  A    between atoms: _57  and  _58
REMARK   29  A    between atoms: _61  and  _63
REMARK   30  A    between atoms: _63  and  _64
REMARK   31  A    between atoms: _66  and  _68
REMARK   32  A    between atoms: _68  and  _69
REMARK   33  A    between atoms: _72  and  _74
REMARK   34  A    between atoms: _74  and  _75
REMARK   35  A    between atoms: _74  and  _77
REMARK   36  A    between atoms: _77  and  _78
REMARK   37  A    between atoms: _78  and  _79
REMARK   38  A    between atoms: _82  and  _84
REMARK   39  A    between atoms: _84  and  _85
REMARK   40  A    between atoms: _84  and  _87
REMARK   41  A    between atoms: _87  and  _88
REMARK   42  A    between atoms: _90  and  _92
REMARK   43  A    between atoms: _92  and  _93
REMARK   44  A    between atoms: _92  and  _95
REMARK   45  A    between atoms: _95  and  _96
REMARK   46  A    between atoms: _101  and  _103
REMARK   47  A    between atoms: _103  and  _104
REMARK   48  A    between atoms: _103  and  _106
REMARK   49  A    between atoms: _106  and  _107
REMARK   50  A    between atoms: _107  and  _108
REMARK   51  A    between atoms: _111  and  _113
REMARK   52  A    between atoms: _113  and  _114
REMARK   53  A    between atoms: _113  and  _116
REMARK   54  A    between atoms: _116  and  _117
REMARK   55  A    between atoms: _119  and  _121
REMARK   56  A    between atoms: _121  and  _122
REMARK   57  A    between atoms: _121  and  _124
REMARK   58  A    between atoms: _124  and  _125
REMARK   59  A    between atoms: _135  and  _137
REMARK   60  A    between atoms: _137  and  _138
REMARK   61  A    between atoms: _137  and  _140
REMARK   62  A    between atoms: _140  and  _141
REMARK   63  A    between atoms: _146  and  _148
REMARK   64  A    between atoms: _148  and  _149
REMARK   65  A    between atoms: _151  and  _153
REMARK   66  A    between atoms: _153  and  _154
REMARK   67  A    between atoms: _153  and  _156
REMARK   68  A    between atoms: _156  and  _157
REMARK   69  A    between atoms: _157  and  _158
REMARK   70  A    between atoms: _160  and  _162
REMARK   71  A    between atoms: _162  and  _163
REMARK   72  A    between atoms: _162  and  _165
REMARK   73  A    between atoms: _165  and  _166
REMARK   74  A    between atoms: _169  and  _171
REMARK   75  A    between atoms: _171  and  _172
REMARK   76  A    between atoms: _175  and  _177
REMARK   77  A    between atoms: _177  and  _178
REMARK   78  A    between atoms: _177  and  _180
REMARK   79  A    between atoms: _180  and  _181
REMARK   80  A    between atoms: _184  and  _186
REMARK   81  A    between atoms: _186  and  _187
REMARK   82  A    between atoms: _186  and  _189
REMARK   83  A    between atoms: _189  and  _190
REMARK   84  A    between atoms: _193  and  _195
REMARK   85  A    between atoms: _195  and  _196
REMARK   86  A    between atoms: _199  and  _201
REMARK   87  A    between atoms: _201  and  _202
REMARK   88  A    between atoms: _201  and  _204
REMARK   89  A    between atoms: _204  and  _205
REMARK   90  A    between atoms: _205  and  _206
REMARK   91  A    between atoms: _210  and  _211
REMARK   92  A    between atoms: _216  and  _218
REMARK   93  A    between atoms: _218  and  _219
REMARK   94  A    between atoms: _218  and  _221
REMARK   95  A    between atoms: _221  and  _222
REMARK   96  A    between atoms: _225  and  _227
REMARK   97  A    between atoms: _227  and  _228
REMARK   98  A    between atoms: _227  and  _230
REMARK   99  A    between atoms: _230  and  _231
REMARK  100  A    between atoms: _234  and  _236
REMARK  101  A    between atoms: _236  and  _237
REMARK  102  A    between atoms: _236  and  _239
REMARK  103  A    between atoms: _239  and  _240
REMARK  104  A    between atoms: _242  and  _244
REMARK  105  A    between atoms: _244  and  _245
REMARK  106  A    between atoms: _244  and  _247
REMARK  107  A    between atoms: _247  and  _248
REMARK  108  A    between atoms: _250  and  _252
REMARK  109  A    between atoms: _252  and  _253
REMARK  110  A    between atoms: _255  and  _257
REMARK  111  A    between atoms: _257  and  _258
REMARK  112  A    between atoms: _260  and  _262
REMARK  113  A    between atoms: _262  and  _263
REMARK  114  A    between atoms: _262  and  _265
REMARK  115  A    between atoms: _265  and  _266
REMARK  116  A    between atoms: _269  and  _271
REMARK  117  A    between atoms: _271  and  _272
REMARK  118  A    between atoms: _271  and  _274
REMARK  119  A    between atoms: _274  and  _275
REMARK  120  A    between atoms: _275  and  _276
REMARK  121  A    between atoms: _279  and  _281
REMARK  122  A    between atoms: _281  and  _282
REMARK  123  A    between atoms: _285  and  _287
REMARK  124  A    between atoms: _287  and  _288
REMARK  125  A    between atoms: _287  and  _290
REMARK  126  A    between atoms: _290  and  _291
REMARK  127  A    between atoms: _291  and  _292
REMARK  128  A    between atoms: _297  and  _299
REMARK  129  A    between atoms: _299  and  _300
REMARK  130  A    between atoms: _299  and  _302
REMARK  131  A    between atoms: _302  and  _303
REMARK  132  A    between atoms: _306  and  _308
REMARK  133  A    between atoms: _308  and  _309
REMARK  134  A    between atoms: _311  and  _313
REMARK  135  A    between atoms: _313  and  _314
REMARK  136  A    between atoms: _313  and  _316
REMARK  137  A    between atoms: _316  and  _317
REMARK  138  A    between atoms: _320  and  _322
REMARK  139  A    between atoms: _322  and  _323
REMARK  140  A    between atoms: _322  and  _325
REMARK  141  A    between atoms: _325  and  _326
REMARK  142  A    between atoms: _329  and  _331
REMARK  143  A    between atoms: _331  and  _332
REMARK  144  A    between atoms: _331  and  _334
REMARK  145  A    between atoms: _334  and  _335
REMARK  146  A    between atoms: _337  and  _339
REMARK  147  A    between atoms: _339  and  _340
REMARK  148  A    between atoms: _339  and  _342
REMARK  149  A    between atoms: _342  and  _343
REMARK  150  A    between atoms: _343  and  _344
REMARK  151  A    between atoms: _344  and  _345
REMARK  152  A    between atoms: _345  and  _346
REMARK  153  A    between atoms: _351  and  _352
REMARK  154  A    between atoms: _357  and  _359
REMARK  155  A    between atoms: _359  and  _360
REMARK  156  A    between atoms: _359  and  _362
REMARK  157  A    between atoms: _362  and  _363
REMARK  158  A    between atoms: _366  and  _368
REMARK  159  A    between atoms: _368  and  _369
REMARK  160  A    between atoms: _372  and  _374
REMARK  161  A    between atoms: _374  and  _375
REMARK  162  A    between atoms: _374  and  _377
REMARK  163  A    between atoms: _377  and  _378
REMARK  164  A    between atoms: _383  and  _385
REMARK  165  A    between atoms: _385  and  _386
REMARK  166  A    between atoms: _385  and  _388
REMARK  167  A    between atoms: _391  and  _393
REMARK  168  A    between atoms: _393  and  _394
REMARK  169  A    between atoms: _393  and  _396
REMARK  170  A    between atoms: _396  and  _397
REMARK  171  A    between atoms: _397  and  _398
REMARK  172  A    between atoms: _398  and  _399
REMARK  173  A    between atoms: _408  and  _410
REMARK  174  A    between atoms: _410  and  _411
REMARK  175  A    between atoms: _410  and  _413
REMARK  176  A    between atoms: _413  and  _414
REMARK  177  A    between atoms: _419  and  _421
REMARK  178  A    between atoms: _421  and  _422
REMARK  179  A    between atoms: _421  and  _424
REMARK  180  A    between atoms: _424  and  _425
REMARK  181  A    between atoms: _431  and  _433
REMARK  182  A    between atoms: _433  and  _434
REMARK  183  A    between atoms: _433  and  _436
REMARK  184  A    between atoms: _436  and  _437
REMARK  185  A    between atoms: _439  and  _441
REMARK  186  A    between atoms: _441  and  _442
REMARK  187  A    between atoms: _441  and  _444
REMARK  188  A    between atoms: _444  and  _445
REMARK  189  A    between atoms: _445  and  _446
REMARK  190  A    between atoms: _449  and  _451
REMARK  191  A    between atoms: _451  and  _452
REMARK  192  A    between atoms: _451  and  _454
REMARK  193  A    between atoms: _454  and  _455
REMARK  194  A    between atoms: _458  and  _460
REMARK  195  A    between atoms: _460  and  _461
REMARK  196  A    between atoms: _460  and  _463
REMARK  197  A    between atoms: _463  and  _464
REMARK  198  A    between atoms: _466  and  _468
REMARK  199  A    between atoms: _468  and  _469
REMARK  200  A    between atoms: _468  and  _471
REMARK  201  A    between atoms: _471  and  _472
REMARK  202  A    between atoms: _472  and  _473
REMARK  203  A    between atoms: _476  and  _478
REMARK  204  A    between atoms: _478  and  _479
REMARK  205  A    between atoms: _478  and  _481
REMARK  206  A    between atoms: _481  and  _482
REMARK  207  A    between atoms: _488  and  _490
REMARK  208  A    between atoms: _490  and  _491
REMARK  209  A    between atoms: _490  and  _493
REMARK  210  A    between atoms: _493  and  _494
REMARK  211  A    between atoms: _499  and  _500
REMARK  212  A    between atoms: _502  and  _504
REMARK  213  A    between atoms: _504  and  _505
REMARK  214  A    between atoms: _504  and  _507
REMARK  215  A    between atoms: _507  and  _508
REMARK  216  A    between atoms: _511  and  _513
REMARK  217  A    between atoms: _513  and  _514
REMARK  218  A    between atoms: _513  and  _516
REMARK  219  A    between atoms: _516  and  _517
REMARK  220  A    between atoms: _520  and  _522
REMARK  221  A    between atoms: _522  and  _523
REMARK  222  A    between atoms: _522  and  _525
REMARK  223  A    between atoms: _525  and  _526
REMARK  224  A    between atoms: _531  and  _533
REMARK  225  A    between atoms: _533  and  _534
REMARK  226  A    between atoms: _533  and  _536
REMARK                            x       y       z     vdW  Elec       q    Type
REMARK                         _______ _______ _______ _____ _____    ______ ____
ROOT
ATOM      1  O   HOH     1      15.313  60.288  12.441  0.00  0.00    +0.000 OA
ENDROOT
TORSDOF 0
REMARK  Name = ../refined-set-2016/1m0q/1m0q_pocket.pdb
REMARK  226 active torsions:
REMARK  status: ('A' for Active; 'I' for Inactive)
REMARK    1  A    between atoms: _1  and  _3
REMARK    2  A    between atoms: _3  and  _4
REMARK    3  A    between atoms: _3  and  _6
REMARK    4  A    between atoms: _6  and  _7
REMARK    5  A    between atoms: _10  and  _12
REMARK    6  A    between atoms: _12  and  _13
REMARK    7  A    between atoms: _15  and  _17
REMARK    8  A    between atoms: _17  and  _18
REMARK    9  A    between atoms: _17  and  _20
REMARK   10  A    between atoms: _20  and  _21
REMARK   11  A    between atoms: _21  and  _22
REMARK   12  A    between atoms: _27  and  _29
REMARK   13  A    between atoms: _29  and  _30
REMARK   14  A    between atoms: _29  and  _32
REMARK   15  A    between atoms: _32  and  _33
REMARK   16  A    between atoms: _33  and  _34
REMARK   17  A    between atoms: _36  and  _38
REMARK   18  A    between atoms: _38  and  _39
REMARK   19  A    between atoms: _38  and  _41
REMARK   20  A    between atoms: _41  and  _42
REMARK   21  A    between atoms: _44  and  _46
REMARK   22  A    between atoms: _46  and  _47
REMARK   23  A    between atoms: _46  and  _49
REMARK   24  A    between atoms: _49  and  _50
REMARK   25  A    between atoms: _52  and  _54
REMARK   26  A    between atoms: _54  and  _55
REMARK   27  A    between atoms: _54  and  _57
REMARK   28  A    between atoms: _57  and  _58
REMARK   29  A    between atoms: _61  and  _63
REMARK   30  A    between atoms: _63  and  _64
REMARK   31  A    between atoms: _66  and  _68
REMARK   32  A    between atoms: _68  and  _69
REMARK   33  A    between atoms: _72  and  _74
REMARK   34  A    between atoms: _74  and  _75
REMARK   35  A    between atoms: _74  and  _77
REMARK   36  A    between atoms: _77  and  _78
REMARK   37  A    between atoms: _78  and  _79
REMARK   38  A    between atoms: _82  and  _84
REMARK   39  A    between atoms: _84  and  _85
REMARK   40  A    between atoms: _84  and  _87
REMARK   41  A    between atoms: _87  and  _88
REMARK   42  A    between atoms: _90  and  _92
REMARK   43  A    between atoms: _92  and  _93
REMARK   44  A    between atoms: _92  and  _95
REMARK   45  A    between atoms: _95  and  _96
REMARK   46  A    between atoms: _101  and  _103
REMARK   47  A    between atoms: _103  and  _104
REMARK   48  A    between atoms: _103  and  _106
REMARK   49  A    between atoms: _106  and  _107
REMARK   50  A    between atoms: _107  and  _108
REMARK   51  A    between atoms: _111  and  _113
REMARK   52  A    between atoms: _113  and  _114
REMARK   53  A    between atoms: _113  and  _116
REMARK   54  A    between atoms: _116  and  _117
REMARK   55  A    between atoms: _119  and  _121
REMARK   56  A    between atoms: _121  and  _122
REMARK   57  A    between atoms: _121  and  _124
REMARK   58  A    between atoms: _124  and  _125
REMARK   59  A    between atoms: _135  and  _137
REMARK   60  A    between atoms: _137  and  _138
REMARK   61  A    between atoms: _137  and  _140
REMARK   62  A    between atoms: _140  and  _141
REMARK   63  A    between atoms: _146  and  _148
REMARK   64  A    between atoms: _148  and  _149
REMARK   65  A    between atoms: _151  and  _153
REMARK   66  A    between atoms: _153  and  _154
REMARK   67  A    between atoms: _153  and  _156
REMARK   68  A    between atoms: _156  and  _157
REMARK   69  A    between atoms: _157  and  _158
REMARK   70  A    between atoms: _160  and  _162
REMARK   71  A    between atoms: _162  and  _163
REMARK   72  A    between atoms: _162  and  _165
REMARK   73  A    between atoms: _165  and  _166
REMARK   74  A    between atoms: _169  and  _171
REMARK   75  A    between atoms: _171  and  _172
REMARK   76  A    between atoms: _175  and  _177
REMARK   77  A    between atoms: _177  and  _178
REMARK   78  A    between atoms: _177  and  _180
REMARK   79  A    between atoms: _180  and  _181
REMARK   80  A    between atoms: _184  and  _186
REMARK   81  A    between atoms: _186  and  _187
REMARK   82  A    between atoms: _186  and  _189
REMARK   83  A    between atoms: _189  and  _190
REMARK   84  A    between atoms: _193  and  _195
REMARK   85  A    between atoms: _195  and  _196
REMARK   86  A    between atoms: _199  and  _201
REMARK   87  A    between atoms: _201  and  _202
REMARK   88  A    between atoms: _201  and  _204
REMARK   89  A    between atoms: _204  and  _205
REMARK   90  A    between atoms: _205  and  _206
REMARK   91  A    between atoms: _210  and  _211
REMARK   92  A    between atoms: _216  and  _218
REMARK   93  A    between atoms: _218  and  _219
REMARK   94  A    between atoms: _218  and  _221
REMARK   95  A    between atoms: _221  and  _222
REMARK   96  A    between atoms: _225  and  _227
REMARK   97  A    between atoms: _227  and  _228
REMARK   98  A    between atoms: _227  and  _230
REMARK   99  A    between atoms: _230  and  _231
REMARK  100  A    between atoms: _234  and  _236
REMARK  101  A    between atoms: _236  and  _237
REMARK  102  A    between atoms: _236  and  _239
REMARK  103  A    between atoms: _239  and  _240
REMARK  104  A    between atoms: _242  and  _244
REMARK  105  A    between atoms: _244  and  _245
REMARK  106  A    between atoms: _244  and  _247
REMARK  107  A    between atoms: _247  and  _248
REMARK  108  A    between atoms: _250  and  _252
REMARK  109  A    between atoms: _252  and  _253
REMARK  110  A    between atoms: _255  and  _257
REMARK  111  A    between atoms: _257  and  _258
REMARK  112  A    between atoms: _260  and  _262
REMARK  113  A    between atoms: _262  and  _263
REMARK  114  A    between atoms: _262  and  _265
REMARK  115  A    between atoms: _265  and  _266
REMARK  116  A    between atoms: _269  and  _271
REMARK  117  A    between atoms: _271  and  _272
REMARK  118  A    between atoms: _271  and  _274
REMARK  119  A    between atoms: _274  and  _275
REMARK  120  A    between atoms: _275  and  _276
REMARK  121  A    between atoms: _279  and  _281
REMARK  122  A    between atoms: _281  and  _282
REMARK  123  A    between atoms: _285  and  _287
REMARK  124  A    between atoms: _287  and  _288
REMARK  125  A    between atoms: _287  and  _290
REMARK  126  A    between atoms: _290  and  _291
REMARK  127  A    between atoms: _291  and  _292
REMARK  128  A    between atoms: _297  and  _299
REMARK  129  A    between atoms: _299  and  _300
REMARK  130  A    between atoms: _299  and  _302
REMARK  131  A    between atoms: _302  and  _303
REMARK  132  A    between atoms: _306  and  _308
REMARK  133  A    between atoms: _308  and  _309
REMARK  134  A    between atoms: _311  and  _313
REMARK  135  A    between atoms: _313  and  _314
REMARK  136  A    between atoms: _313  and  _316
REMARK  137  A    between atoms: _316  and  _317
REMARK  138  A    between atoms: _320  and  _322
REMARK  139  A    between atoms: _322  and  _323
REMARK  140  A    between atoms: _322  and  _325
REMARK  141  A    between atoms: _325  and  _326
REMARK  142  A    between atoms: _329  and  _331
REMARK  143  A    between atoms: _331  and  _332
REMARK  144  A    between atoms: _331  and  _334
REMARK  145  A    between atoms: _334  and  _335
REMARK  146  A    between atoms: _337  and  _339
REMARK  147  A    between atoms: _339  and  _340
REMARK  148  A    between atoms: _339  and  _342
REMARK  149  A    between atoms: _342  and  _343
REMARK  150  A    between atoms: _343  and  _344
REMARK  151  A    between atoms: _344  and  _345
REMARK  152  A    between atoms: _345  and  _346
REMARK  153  A    between atoms: _351  and  _352
REMARK  154  A    between atoms: _357  and  _359
REMARK  155  A    between atoms: _359  and  _360
REMARK  156  A    between atoms: _359  and  _362
REMARK  157  A    between atoms: _362  and  _363
REMARK  158  A    between atoms: _366  and  _368
REMARK  159  A    between atoms: _368  and  _369
REMARK  160  A    between atoms: _372  and  _374
REMARK  161  A    between atoms: _374  and  _375
REMARK  162  A    between atoms: _374  and  _377
REMARK  163  A    between atoms: _377  and  _378
REMARK  164  A    between atoms: _383  and  _385
REMARK  165  A    between atoms: _385  and  _386
REMARK  166  A    between atoms: _385  and  _388
REMARK  167  A    between atoms: _391  and  _393
REMARK  168  A    between atoms: _393  and  _394
REMARK  169  A    between atoms: _393  and  _396
REMARK  170  A    between atoms: _396  and  _397
REMARK  171  A    between atoms: _397  and  _398
REMARK  172  A    between atoms: _398  and  _399
REMARK  173  A    between atoms: _408  and  _410
REMARK  174  A    between atoms: _410  and  _411
REMARK  175  A    between atoms: _410  and  _413
REMARK  176  A    between atoms: _413  and  _414
REMARK  177  A    between atoms: _419  and  _421
REMARK  178  A    between atoms: _421  and  _422
REMARK  179  A    between atoms: _421  and  _424
REMARK  180  A    between atoms: _424  and  _425
REMARK  181  A    between atoms: _431  and  _433
REMARK  182  A    between atoms: _433  and  _434
REMARK  183  A    between atoms: _433  and  _436
REMARK  184  A    between atoms: _436  and  _437
REMARK  185  A    between atoms: _439  and  _441
REMARK  186  A    between atoms: _441  and  _442
REMARK  187  A    between atoms: _441  and  _444
REMARK  188  A    between atoms: _444  and  _445
REMARK  189  A    between atoms: _445  and  _446
REMARK  190  A    between atoms: _449  and  _451
REMARK  191  A    between atoms: _451  and  _452
REMARK  192  A    between atoms: _451  and  _454
REMARK  193  A    between atoms: _454  and  _455
REMARK  194  A    between atoms: _458  and  _460
REMARK  195  A    between atoms: _460  and  _461
REMARK  196  A    between atoms: _460  and  _463
REMARK  197  A    between atoms: _463  and  _464
REMARK  198  A    between atoms: _466  and  _468
REMARK  199  A    between atoms: _468  and  _469
REMARK  200  A    between atoms: _468  and  _471
REMARK  201  A    between atoms: _471  and  _472
REMARK  202  A    between atoms: _472  and  _473
REMARK  203  A    between atoms: _476  and  _478
REMARK  204  A    between atoms: _478  and  _479
REMARK  205  A    between atoms: _478  and  _481
REMARK  206  A    between atoms: _481  and  _482
REMARK  207  A    between atoms: _488  and  _490
REMARK  208  A    between atoms: _490  and  _491
REMARK  209  A    between atoms: _490  and  _493
REMARK  210  A    between atoms: _493  and  _494
REMARK  211  A    between atoms: _499  and  _500
REMARK  212  A    between atoms: _502  and  _504
REMARK  213  A    between atoms: _504  and  _505
REMARK  214  A    between atoms: _504  and  _507
REMARK  215  A    between atoms: _507  and  _508
REMARK  216  A    between atoms: _511  and  _513
REMARK  217  A    between atoms: _513  and  _514
REMARK  218  A    between atoms: _513  and  _516
REMARK  219  A    between atoms: _516  and  _517
REMARK  220  A    between atoms: _520  and  _522
REMARK  221  A    between atoms: _522  and  _523
REMARK  222  A    between atoms: _522  and  _525
REMARK  223  A    between atoms: _525  and  _526
REMARK  224  A    between atoms: _531  and  _533
REMARK  225  A    between atoms: _533  and  _534
REMARK  226  A    between atoms: _533  and  _536
REMARK                            x       y       z     vdW  Elec       q    Type
REMARK                         _______ _______ _______ _____ _____    ______ ____
ROOT
ATOM      1  O   HOH     1      12.059  53.119  11.410  0.00  0.00    +0.000 OA
ENDROOT
TORSDOF 0
REMARK  Name = ../refined-set-2016/1m0q/1m0q_pocket.pdb
REMARK  226 active torsions:
REMARK  status: ('A' for Active; 'I' for Inactive)
REMARK    1  A    between atoms: _1  and  _3
REMARK    2  A    between atoms: _3  and  _4
REMARK    3  A    between atoms: _3  and  _6
REMARK    4  A    between atoms: _6  and  _7
REMARK    5  A    between atoms: _10  and  _12
REMARK    6  A    between atoms: _12  and  _13
REMARK    7  A    between atoms: _15  and  _17
REMARK    8  A    between atoms: _17  and  _18
REMARK    9  A    between atoms: _17  and  _20
REMARK   10  A    between atoms: _20  and  _21
REMARK   11  A    between atoms: _21  and  _22
REMARK   12  A    between atoms: _27  and  _29
REMARK   13  A    between atoms: _29  and  _30
REMARK   14  A    between atoms: _29  and  _32
REMARK   15  A    between atoms: _32  and  _33
REMARK   16  A    between atoms: _33  and  _34
REMARK   17  A    between atoms: _36  and  _38
REMARK   18  A    between atoms: _38  and  _39
REMARK   19  A    between atoms: _38  and  _41
REMARK   20  A    between atoms: _41  and  _42
REMARK   21  A    between atoms: _44  and  _46
REMARK   22  A    between atoms: _46  and  _47
REMARK   23  A    between atoms: _46  and  _49
REMARK   24  A    between atoms: _49  and  _50
REMARK   25  A    between atoms: _52  and  _54
REMARK   26  A    between atoms: _54  and  _55
REMARK   27  A    between atoms: _54  and  _57
REMARK   28  A    between atoms: _57  and  _58
REMARK   29  A    between atoms: _61  and  _63
REMARK   30  A    between atoms: _63  and  _64
REMARK   31  A    between atoms: _66  and  _68
REMARK   32  A    between atoms: _68  and  _69
REMARK   33  A    between atoms: _72  and  _74
REMARK   34  A    between atoms: _74  and  _75
REMARK   35  A    between atoms: _74  and  _77
REMARK   36  A    between atoms: _77  and  _78
REMARK   37  A    between atoms: _78  and  _79
REMARK   38  A    between atoms: _82  and  _84
REMARK   39  A    between atoms: _84  and  _85
REMARK   40  A    between atoms: _84  and  _87
REMARK   41  A    between atoms: _87  and  _88
REMARK   42  A    between atoms: _90  and  _92
REMARK   43  A    between atoms: _92  and  _93
REMARK   44  A    between atoms: _92  and  _95
REMARK   45  A    between atoms: _95  and  _96
REMARK   46  A    between atoms: _101  and  _103
REMARK   47  A    between atoms: _103  and  _104
REMARK   48  A    between atoms: _103  and  _106
REMARK   49  A    between atoms: _106  and  _107
REMARK   50  A    between atoms: _107  and  _108
REMARK   51  A    between atoms: _111  and  _113
REMARK   52  A    between atoms: _113  and  _114
REMARK   53  A    between atoms: _113  and  _116
REMARK   54  A    between atoms: _116  and  _117
REMARK   55  A    between atoms: _119  and  _121
REMARK   56  A    between atoms: _121  and  _122
REMARK   57  A    between atoms: _121  and  _124
REMARK   58  A    between atoms: _124  and  _125
REMARK   59  A    between atoms: _135  and  _137
REMARK   60  A    between atoms: _137  and  _138
REMARK   61  A    between atoms: _137  and  _140
REMARK   62  A    between atoms: _140  and  _141
REMARK   63  A    between atoms: _146  and  _148
REMARK   64  A    between atoms: _148  and  _149
REMARK   65  A    between atoms: _151  and  _153
REMARK   66  A    between atoms: _153  and  _154
REMARK   67  A    between atoms: _153  and  _156
REMARK   68  A    between atoms: _156  and  _157
REMARK   69  A    between atoms: _157  and  _158
REMARK   70  A    between atoms: _160  and  _162
REMARK   71  A    between atoms: _162  and  _163
REMARK   72  A    between atoms: _162  and  _165
REMARK   73  A    between atoms: _165  and  _166
REMARK   74  A    between atoms: _169  and  _171
REMARK   75  A    between atoms: _171  and  _172
REMARK   76  A    between atoms: _175  and  _177
REMARK   77  A    between atoms: _177  and  _178
REMARK   78  A    between atoms: _177  and  _180
REMARK   79  A    between atoms: _180  and  _181
REMARK   80  A    between atoms: _184  and  _186
REMARK   81  A    between atoms: _186  and  _187
REMARK   82  A    between atoms: _186  and  _189
REMARK   83  A    between atoms: _189  and  _190
REMARK   84  A    between atoms: _193  and  _195
REMARK   85  A    between atoms: _195  and  _196
REMARK   86  A    between atoms: _199  and  _201
REMARK   87  A    between atoms: _201  and  _202
REMARK   88  A    between atoms: _201  and  _204
REMARK   89  A    between atoms: _204  and  _205
REMARK   90  A    between atoms: _205  and  _206
REMARK   91  A    between atoms: _210  and  _211
REMARK   92  A    between atoms: _216  and  _218
REMARK   93  A    between atoms: _218  and  _219
REMARK   94  A    between atoms: _218  and  _221
REMARK   95  A    between atoms: _221  and  _222
REMARK   96  A    between atoms: _225  and  _227
REMARK   97  A    between atoms: _227  and  _228
REMARK   98  A    between atoms: _227  and  _230
REMARK   99  A    between atoms: _230  and  _231
REMARK  100  A    between atoms: _234  and  _236
REMARK  101  A    between atoms: _236  and  _237
REMARK  102  A    between atoms: _236  and  _239
REMARK  103  A    between atoms: _239  and  _240
REMARK  104  A    between atoms: _242  and  _244
REMARK  105  A    between atoms: _244  and  _245
REMARK  106  A    between atoms: _244  and  _247
REMARK  107  A    between atoms: _247  and  _248
REMARK  108  A    between atoms: _250  and  _252
REMARK  109  A    between atoms: _252  and  _253
REMARK  110  A    between atoms: _255  and  _257
REMARK  111  A    between atoms: _257  and  _258
REMARK  112  A    between atoms: _260  and  _262
REMARK  113  A    between atoms: _262  and  _263
REMARK  114  A    between atoms: _262  and  _265
REMARK  115  A    between atoms: _265  and  _266
REMARK  116  A    between atoms: _269  and  _271
REMARK  117  A    between atoms: _271  and  _272
REMARK  118  A    between atoms: _271  and  _274
REMARK  119  A    between atoms: _274  and  _275
REMARK  120  A    between atoms: _275  and  _276
REMARK  121  A    between atoms: _279  and  _281
REMARK  122  A    between atoms: _281  and  _282
REMARK  123  A    between atoms: _285  and  _287
REMARK  124  A    between atoms: _287  and  _288
REMARK  125  A    between atoms: _287  and  _290
REMARK  126  A    between atoms: _290  and  _291
REMARK  127  A    between atoms: _291  and  _292
REMARK  128  A    between atoms: _297  and  _299
REMARK  129  A    between atoms: _299  and  _300
REMARK  130  A    between atoms: _299  and  _302
REMARK  131  A    between atoms: _302  and  _303
REMARK  132  A    between atoms: _306  and  _308
REMARK  133  A    between atoms: _308  and  _309
REMARK  134  A    between atoms: _311  and  _313
REMARK  135  A    between atoms: _313  and  _314
REMARK  136  A    between atoms: _313  and  _316
REMARK  137  A    between atoms: _316  and  _317
REMARK  138  A    between atoms: _320  and  _322
REMARK  139  A    between atoms: _322  and  _323
REMARK  140  A    between atoms: _322  and  _325
REMARK  141  A    between atoms: _325  and  _326
REMARK  142  A    between atoms: _329  and  _331
REMARK  143  A    between atoms: _331  and  _332
REMARK  144  A    between atoms: _331  and  _334
REMARK  145  A    between atoms: _334  and  _335
REMARK  146  A    between atoms: _337  and  _339
REMARK  147  A    between atoms: _339  and  _340
REMARK  148  A    between atoms: _339  and  _342
REMARK  149  A    between atoms: _342  and  _343
REMARK  150  A    between atoms: _343  and  _344
REMARK  151  A    between atoms: _344  and  _345
REMARK  152  A    between atoms: _345  and  _346
REMARK  153  A    between atoms: _351  and  _352
REMARK  154  A    between atoms: _357  and  _359
REMARK  155  A    between atoms: _359  and  _360
REMARK  156  A    between atoms: _359  and  _362
REMARK  157  A    between atoms: _362  and  _363
REMARK  158  A    between atoms: _366  and  _368
REMARK  159  A    between atoms: _368  and  _369
REMARK  160  A    between atoms: _372  and  _374
REMARK  161  A    between atoms: _374  and  _375
REMARK  162  A    between atoms: _374  and  _377
REMARK  163  A    between atoms: _377  and  _378
REMARK  164  A    between atoms: _383  and  _385
REMARK  165  A    between atoms: _385  and  _386
REMARK  166  A    between atoms: _385  and  _388
REMARK  167  A    between atoms: _391  and  _393
REMARK  168  A    between atoms: _393  and  _394
REMARK  169  A    between atoms: _393  and  _396
REMARK  170  A    between atoms: _396  and  _397
REMARK  171  A    between atoms: _397  and  _398
REMARK  172  A    between atoms: _398  and  _399
REMARK  173  A    between atoms: _408  and  _410
REMARK  174  A    between atoms: _410  and  _411
REMARK  175  A    between atoms: _410  and  _413
REMARK  176  A    between atoms: _413  and  _414
REMARK  177  A    between atoms: _419  and  _421
REMARK  178  A    between atoms: _421  and  _422
REMARK  179  A    between atoms: _421  and  _424
REMARK  180  A    between atoms: _424  and  _425
REMARK  181  A    between atoms: _431  and  _433
REMARK  182  A    between atoms: _433  and  _434
REMARK  183  A    between atoms: _433  and  _436
REMARK  184  A    between atoms: _436  and  _437
REMARK  185  A    between atoms: _439  and  _441
REMARK  186  A    between atoms: _441  and  _442
REMARK  187  A    between atoms: _441  and  _444
REMARK  188  A    between atoms: _444  and  _445
REMARK  189  A    between atoms: _445  and  _446
REMARK  190  A    between atoms: _449  and  _451
REMARK  191  A    between atoms: _451  and  _452
REMARK  192  A    between atoms: _451  and  _454
REMARK  193  A    between atoms: _454  and  _455
REMARK  194  A    between atoms: _458  and  _460
REMARK  195  A    between atoms: _460  and  _461
REMARK  196  A    between atoms: _460  and  _463
REMARK  197  A    between atoms: _463  and  _464
REMARK  198  A    between atoms: _466  and  _468
REMARK  199  A    between atoms: _468  and  _469
REMARK  200  A    between atoms: _468  and  _471
REMARK  201  A    between atoms: _471  and  _472
REMARK  202  A    between atoms: _472  and  _473
REMARK  203  A    between atoms: _476  and  _478
REMARK  204  A    between atoms: _478  and  _479
REMARK  205  A    between atoms: _478  and  _481
REMARK  206  A    between atoms: _481  and  _482
REMARK  207  A    between atoms: _488  and  _490
REMARK  208  A    between atoms: _490  and  _491
REMARK  209  A    between atoms: _490  and  _493
REMARK  210  A    between atoms: _493  and  _494
REMARK  211  A    between atoms: _499  and  _500
REMARK  212  A    between atoms: _502  and  _504
REMARK  213  A    between atoms: _504  and  _505
REMARK  214  A    between atoms: _504  and  _507
REMARK  215  A    between atoms: _507  and  _508
REMARK  216  A    between atoms: _511  and  _513
REMARK  217  A    between atoms: _513  and  _514
REMARK  218  A    between atoms: _513  and  _516
REMARK  219  A    between atoms: _516  and  _517
REMARK  220  A    between atoms: _520  and  _522
REMARK  221  A    between atoms: _522  and  _523
REMARK  222  A    between atoms: _522  and  _525
REMARK  223  A    between atoms: _525  and  _526
REMARK  224  A    between atoms: _531  and  _533
REMARK  225  A    between atoms: _533  and  _534
REMARK  226  A    between atoms: _533  and  _536
REMARK                            x       y       z     vdW  Elec       q    Type
REMARK                         _______ _______ _______ _____ _____    ______ ____
ROOT
ATOM      1  O   HOH     1      18.470  45.577  14.858  0.00  0.00    +0.000 OA
ENDROOT
TORSDOF 0
REMARK  Name = ../refined-set-2016/1m0q/1m0q_pocket.pdb
REMARK  226 active torsions:
REMARK  status: ('A' for Active; 'I' for Inactive)
REMARK    1  A    between atoms: _1  and  _3
REMARK    2  A    between atoms: _3  and  _4
REMARK    3  A    between atoms: _3  and  _6
REMARK    4  A    between atoms: _6  and  _7
REMARK    5  A    between atoms: _10  and  _12
REMARK    6  A    between atoms: _12  and  _13
REMARK    7  A    between atoms: _15  and  _17
REMARK    8  A    between atoms: _17  and  _18
REMARK    9  A    between atoms: _17  and  _20
REMARK   10  A    between atoms: _20  and  _21
REMARK   11  A    between atoms: _21  and  _22
REMARK   12  A    between atoms: _27  and  _29
REMARK   13  A    between atoms: _29  and  _30
REMARK   14  A    between atoms: _29  and  _32
REMARK   15  A    between atoms: _32  and  _33
REMARK   16  A    between atoms: _33  and  _34
REMARK   17  A    between atoms: _36  and  _38
REMARK   18  A    between atoms: _38  and  _39
REMARK   19  A    between atoms: _38  and  _41
REMARK   20  A    between atoms: _41  and  _42
REMARK   21  A    between atoms: _44  and  _46
REMARK   22  A    between atoms: _46  and  _47
REMARK   23  A    between atoms: _46  and  _49
REMARK   24  A    between atoms: _49  and  _50
REMARK   25  A    between atoms: _52  and  _54
REMARK   26  A    between atoms: _54  and  _55
REMARK   27  A    between atoms: _54  and  _57
REMARK   28  A    between atoms: _57  and  _58
REMARK   29  A    between atoms: _61  and  _63
REMARK   30  A    between atoms: _63  and  _64
REMARK   31  A    between atoms: _66  and  _68
REMARK   32  A    between atoms: _68  and  _69
REMARK   33  A    between atoms: _72  and  _74
REMARK   34  A    between atoms: _74  and  _75
REMARK   35  A    between atoms: _74  and  _77
REMARK   36  A    between atoms: _77  and  _78
REMARK   37  A    between atoms: _78  and  _79
REMARK   38  A    between atoms: _82  and  _84
REMARK   39  A    between atoms: _84  and  _85
REMARK   40  A    between atoms: _84  and  _87
REMARK   41  A    between atoms: _87  and  _88
REMARK   42  A    between atoms: _90  and  _92
REMARK   43  A    between atoms: _92  and  _93
REMARK   44  A    between atoms: _92  and  _95
REMARK   45  A    between atoms: _95  and  _96
REMARK   46  A    between atoms: _101  and  _103
REMARK   47  A    between atoms: _103  and  _104
REMARK   48  A    between atoms: _103  and  _106
REMARK   49  A    between atoms: _106  and  _107
REMARK   50  A    between atoms: _107  and  _108
REMARK   51  A    between atoms: _111  and  _113
REMARK   52  A    between atoms: _113  and  _114
REMARK   53  A    between atoms: _113  and  _116
REMARK   54  A    between atoms: _116  and  _117
REMARK   55  A    between atoms: _119  and  _121
REMARK   56  A    between atoms: _121  and  _122
REMARK   57  A    between atoms: _121  and  _124
REMARK   58  A    between atoms: _124  and  _125
REMARK   59  A    between atoms: _135  and  _137
REMARK   60  A    between atoms: _137  and  _138
REMARK   61  A    between atoms: _137  and  _140
REMARK   62  A    between atoms: _140  and  _141
REMARK   63  A    between atoms: _146  and  _148
REMARK   64  A    between atoms: _148  and  _149
REMARK   65  A    between atoms: _151  and  _153
REMARK   66  A    between atoms: _153  and  _154
REMARK   67  A    between atoms: _153  and  _156
REMARK   68  A    between atoms: _156  and  _157
REMARK   69  A    between atoms: _157  and  _158
REMARK   70  A    between atoms: _160  and  _162
REMARK   71  A    between atoms: _162  and  _163
REMARK   72  A    between atoms: _162  and  _165
REMARK   73  A    between atoms: _165  and  _166
REMARK   74  A    between atoms: _169  and  _171
REMARK   75  A    between atoms: _171  and  _172
REMARK   76  A    between atoms: _175  and  _177
REMARK   77  A    between atoms: _177  and  _178
REMARK   78  A    between atoms: _177  and  _180
REMARK   79  A    between atoms: _180  and  _181
REMARK   80  A    between atoms: _184  and  _186
REMARK   81  A    between atoms: _186  and  _187
REMARK   82  A    between atoms: _186  and  _189
REMARK   83  A    between atoms: _189  and  _190
REMARK   84  A    between atoms: _193  and  _195
REMARK   85  A    between atoms: _195  and  _196
REMARK   86  A    between atoms: _199  and  _201
REMARK   87  A    between atoms: _201  and  _202
REMARK   88  A    between atoms: _201  and  _204
REMARK   89  A    between atoms: _204  and  _205
REMARK   90  A    between atoms: _205  and  _206
REMARK   91  A    between atoms: _210  and  _211
REMARK   92  A    between atoms: _216  and  _218
REMARK   93  A    between atoms: _218  and  _219
REMARK   94  A    between atoms: _218  and  _221
REMARK   95  A    between atoms: _221  and  _222
REMARK   96  A    between atoms: _225  and  _227
REMARK   97  A    between atoms: _227  and  _228
REMARK   98  A    between atoms: _227  and  _230
REMARK   99  A    between atoms: _230  and  _231
REMARK  100  A    between atoms: _234  and  _236
REMARK  101  A    between atoms: _236  and  _237
REMARK  102  A    between atoms: _236  and  _239
REMARK  103  A    between atoms: _239  and  _240
REMARK  104  A    between atoms: _242  and  _244
REMARK  105  A    between atoms: _244  and  _245
REMARK  106  A    between atoms: _244  and  _247
REMARK  107  A    between atoms: _247  and  _248
REMARK  108  A    between atoms: _250  and  _252
REMARK  109  A    between atoms: _252  and  _253
REMARK  110  A    between atoms: _255  and  _257
REMARK  111  A    between atoms: _257  and  _258
REMARK  112  A    between atoms: _260  and  _262
REMARK  113  A    between atoms: _262  and  _263
REMARK  114  A    between atoms: _262  and  _265
REMARK  115  A    between atoms: _265  and  _266
REMARK  116  A    between atoms: _269  and  _271
REMARK  117  A    between atoms: _271  and  _272
REMARK  118  A    between atoms: _271  and  _274
REMARK  119  A    between atoms: _274  and  _275
REMARK  120  A    between atoms: _275  and  _276
REMARK  121  A    between atoms: _279  and  _281
REMARK  122  A    between atoms: _281  and  _282
REMARK  123  A    between atoms: _285  and  _287
REMARK  124  A    between atoms: _287  and  _288
REMARK  125  A    between atoms: _287  and  _290
REMARK  126  A    between atoms: _290  and  _291
REMARK  127  A    between atoms: _291  and  _292
REMARK  128  A    between atoms: _297  and  _299
REMARK  129  A    between atoms: _299  and  _300
REMARK  130  A    between atoms: _299  and  _302
REMARK  131  A    between atoms: _302  and  _303
REMARK  132  A    between atoms: _306  and  _308
REMARK  133  A    between atoms: _308  and  _309
REMARK  134  A    between atoms: _311  and  _313
REMARK  135  A    between atoms: _313  and  _314
REMARK  136  A    between atoms: _313  and  _316
REMARK  137  A    between atoms: _316  and  _317
REMARK  138  A    between atoms: _320  and  _322
REMARK  139  A    between atoms: _322  and  _323
REMARK  140  A    between atoms: _322  and  _325
REMARK  141  A    between atoms: _325  and  _326
REMARK  142  A    between atoms: _329  and  _331
REMARK  143  A    between atoms: _331  and  _332
REMARK  144  A    between atoms: _331  and  _334
REMARK  145  A    between atoms: _334  and  _335
REMARK  146  A    between atoms: _337  and  _339
REMARK  147  A    between atoms: _339  and  _340
REMARK  148  A    between atoms: _339  and  _342
REMARK  149  A    between atoms: _342  and  _343
REMARK  150  A    between atoms: _343  and  _344
REMARK  151  A    between atoms: _344  and  _345
REMARK  152  A    between atoms: _345  and  _346
REMARK  153  A    between atoms: _351  and  _352
REMARK  154  A    between atoms: _357  and  _359
REMARK  155  A    between atoms: _359  and  _360
REMARK  156  A    between atoms: _359  and  _362
REMARK  157  A    between atoms: _362  and  _363
REMARK  158  A    between atoms: _366  and  _368
REMARK  159  A    between atoms: _368  and  _369
REMARK  160  A    between atoms: _372  and  _374
REMARK  161  A    between atoms: _374  and  _375
REMARK  162  A    between atoms: _374  and  _377
REMARK  163  A    between atoms: _377  and  _378
REMARK  164  A    between atoms: _383  and  _385
REMARK  165  A    between atoms: _385  and  _386
REMARK  166  A    between atoms: _385  and  _388
REMARK  167  A    between atoms: _391  and  _393
REMARK  168  A    between atoms: _393  and  _394
REMARK  169  A    between atoms: _393  and  _396
REMARK  170  A    between atoms: _396  and  _397
REMARK  171  A    between atoms: _397  and  _398
REMARK  172  A    between atoms: _398  and  _399
REMARK  173  A    between atoms: _408  and  _410
REMARK  174  A    between atoms: _410  and  _411
REMARK  175  A    between atoms: _410  and  _413
REMARK  176  A    between atoms: _413  and  _414
REMARK  177  A    between atoms: _419  and  _421
REMARK  178  A    between atoms: _421  and  _422
REMARK  179  A    between atoms: _421  and  _424
REMARK  180  A    between atoms: _424  and  _425
REMARK  181  A    between atoms: _431  and  _433
REMARK  182  A    between atoms: _433  and  _434
REMARK  183  A    between atoms: _433  and  _436
REMARK  184  A    between atoms: _436  and  _437
REMARK  185  A    between atoms: _439  and  _441
REMARK  186  A    between atoms: _441  and  _442
REMARK  187  A    between atoms: _441  and  _444
REMARK  188  A    between atoms: _444  and  _445
REMARK  189  A    between atoms: _445  and  _446
REMARK  190  A    between atoms: _449  and  _451
REMARK  191  A    between atoms: _451  and  _452
REMARK  192  A    between atoms: _451  and  _454
REMARK  193  A    between atoms: _454  and  _455
REMARK  194  A    between atoms: _458  and  _460
REMARK  195  A    between atoms: _460  and  _461
REMARK  196  A    between atoms: _460  and  _463
REMARK  197  A    between atoms: _463  and  _464
REMARK  198  A    between atoms: _466  and  _468
REMARK  199  A    between atoms: _468  and  _469
REMARK  200  A    between atoms: _468  and  _471
REMARK  201  A    between atoms: _471  and  _472
REMARK  202  A    between atoms: _472  and  _473
REMARK  203  A    between atoms: _476  and  _478
REMARK  204  A    between atoms: _478  and  _479
REMARK  205  A    between atoms: _478  and  _481
REMARK  206  A    between atoms: _481  and  _482
REMARK  207  A    between atoms: _488  and  _490
REMARK  208  A    between atoms: _490  and  _491
REMARK  209  A    between atoms: _490  and  _493
REMARK  210  A    between atoms: _493  and  _494
REMARK  211  A    between atoms: _499  and  _500
REMARK  212  A    between atoms: _502  and  _504
REMARK  213  A    between atoms: _504  and  _505
REMARK  214  A    between atoms: _504  and  _507
REMARK  215  A    between atoms: _507  and  _508
REMARK  216  A    between atoms: _511  and  _513
REMARK  217  A    between atoms: _513  and  _514
REMARK  218  A    between atoms: _513  and  _516
REMARK  219  A    between atoms: _516  and  _517
REMARK  220  A    between atoms: _520  and  _522
REMARK  221  A    between atoms: _522  and  _523
REMARK  222  A    between atoms: _522  and  _525
REMARK  223  A    between atoms: _525  and  _526
REMARK  224  A    between atoms: _531  and  _533
REMARK  225  A    between atoms: _533  and  _534
REMARK  226  A    between atoms: _533  and  _536
REMARK                            x       y       z     vdW  Elec       q    Type
REMARK                         _______ _______ _______ _____ _____    ______ ____
ROOT
ATOM      1  O   HOH     1      13.944  55.067  17.083  0.00  0.00    +0.000 OA
ENDROOT
TORSDOF 0
REMARK  Name = ../refined-set-2016/1m0q/1m0q_pocket.pdb
REMARK  226 active torsions:
REMARK  status: ('A' for Active; 'I' for Inactive)
REMARK    1  A    between atoms: _1  and  _3
REMARK    2  A    between atoms: _3  and  _4
REMARK    3  A    between atoms: _3  and  _6
REMARK    4  A    between atoms: _6  and  _7
REMARK    5  A    between atoms: _10  and  _12
REMARK    6  A    between atoms: _12  and  _13
REMARK    7  A    between atoms: _15  and  _17
REMARK    8  A    between atoms: _17  and  _18
REMARK    9  A    between atoms: _17  and  _20
REMARK   10  A    between atoms: _20  and  _21
REMARK   11  A    between atoms: _21  and  _22
REMARK   12  A    between atoms: _27  and  _29
REMARK   13  A    between atoms: _29  and  _30
REMARK   14  A    between atoms: _29  and  _32
REMARK   15  A    between atoms: _32  and  _33
REMARK   16  A    between atoms: _33  and  _34
REMARK   17  A    between atoms: _36  and  _38
REMARK   18  A    between atoms: _38  and  _39
REMARK   19  A    between atoms: _38  and  _41
REMARK   20  A    between atoms: _41  and  _42
REMARK   21  A    between atoms: _44  and  _46
REMARK   22  A    between atoms: _46  and  _47
REMARK   23  A    between atoms: _46  and  _49
REMARK   24  A    between atoms: _49  and  _50
REMARK   25  A    between atoms: _52  and  _54
REMARK   26  A    between atoms: _54  and  _55
REMARK   27  A    between atoms: _54  and  _57
REMARK   28  A    between atoms: _57  and  _58
REMARK   29  A    between atoms: _61  and  _63
REMARK   30  A    between atoms: _63  and  _64
REMARK   31  A    between atoms: _66  and  _68
REMARK   32  A    between atoms: _68  and  _69
REMARK   33  A    between atoms: _72  and  _74
REMARK   34  A    between atoms: _74  and  _75
REMARK   35  A    between atoms: _74  and  _77
REMARK   36  A    between atoms: _77  and  _78
REMARK   37  A    between atoms: _78  and  _79
REMARK   38  A    between atoms: _82  and  _84
REMARK   39  A    between atoms: _84  and  _85
REMARK   40  A    between atoms: _84  and  _87
REMARK   41  A    between atoms: _87  and  _88
REMARK   42  A    between atoms: _90  and  _92
REMARK   43  A    between atoms: _92  and  _93
REMARK   44  A    between atoms: _92  and  _95
REMARK   45  A    between atoms: _95  and  _96
REMARK   46  A    between atoms: _101  and  _103
REMARK   47  A    between atoms: _103  and  _104
REMARK   48  A    between atoms: _103  and  _106
REMARK   49  A    between atoms: _106  and  _107
REMARK   50  A    between atoms: _107  and  _108
REMARK   51  A    between atoms: _111  and  _113
REMARK   52  A    between atoms: _113  and  _114
REMARK   53  A    between atoms: _113  and  _116
REMARK   54  A    between atoms: _116  and  _117
REMARK   55  A    between atoms: _119  and  _121
REMARK   56  A    between atoms: _121  and  _122
REMARK   57  A    between atoms: _121  and  _124
REMARK   58  A    between atoms: _124  and  _125
REMARK   59  A    between atoms: _135  and  _137
REMARK   60  A    between atoms: _137  and  _138
REMARK   61  A    between atoms: _137  and  _140
REMARK   62  A    between atoms: _140  and  _141
REMARK   63  A    between atoms: _146  and  _148
REMARK   64  A    between atoms: _148  and  _149
REMARK   65  A    between atoms: _151  and  _153
REMARK   66  A    between atoms: _153  and  _154
REMARK   67  A    between atoms: _153  and  _156
REMARK   68  A    between atoms: _156  and  _157
REMARK   69  A    between atoms: _157  and  _158
REMARK   70  A    between atoms: _160  and  _162
REMARK   71  A    between atoms: _162  and  _163
REMARK   72  A    between atoms: _162  and  _165
REMARK   73  A    between atoms: _165  and  _166
REMARK   74  A    between atoms: _169  and  _171
REMARK   75  A    between atoms: _171  and  _172
REMARK   76  A    between atoms: _175  and  _177
REMARK   77  A    between atoms: _177  and  _178
REMARK   78  A    between atoms: _177  and  _180
REMARK   79  A    between atoms: _180  and  _181
REMARK   80  A    between atoms: _184  and  _186
REMARK   81  A    between atoms: _186  and  _187
REMARK   82  A    between atoms: _186  and  _189
REMARK   83  A    between atoms: _189  and  _190
REMARK   84  A    between atoms: _193  and  _195
REMARK   85  A    between atoms: _195  and  _196
REMARK   86  A    between atoms: _199  and  _201
REMARK   87  A    between atoms: _201  and  _202
REMARK   88  A    between atoms: _201  and  _204
REMARK   89  A    between atoms: _204  and  _205
REMARK   90  A    between atoms: _205  and  _206
REMARK   91  A    between atoms: _210  and  _211
REMARK   92  A    between atoms: _216  and  _218
REMARK   93  A    between atoms: _218  and  _219
REMARK   94  A    between atoms: _218  and  _221
REMARK   95  A    between atoms: _221  and  _222
REMARK   96  A    between atoms: _225  and  _227
REMARK   97  A    between atoms: _227  and  _228
REMARK   98  A    between atoms: _227  and  _230
REMARK   99  A    between atoms: _230  and  _231
REMARK  100  A    between atoms: _234  and  _236
REMARK  101  A    between atoms: _236  and  _237
REMARK  102  A    between atoms: _236  and  _239
REMARK  103  A    between atoms: _239  and  _240
REMARK  104  A    between atoms: _242  and  _244
REMARK  105  A    between atoms: _244  and  _245
REMARK  106  A    between atoms: _244  and  _247
REMARK  107  A    between atoms: _247  and  _248
REMARK  108  A    between atoms: _250  and  _252
REMARK  109  A    between atoms: _252  and  _253
REMARK  110  A    between atoms: _255  and  _257
REMARK  111  A    between atoms: _257  and  _258
REMARK  112  A    between atoms: _260  and  _262
REMARK  113  A    between atoms: _262  and  _263
REMARK  114  A    between atoms: _262  and  _265
REMARK  115  A    between atoms: _265  and  _266
REMARK  116  A    between atoms: _269  and  _271
REMARK  117  A    between atoms: _271  and  _272
REMARK  118  A    between atoms: _271  and  _274
REMARK  119  A    between atoms: _274  and  _275
REMARK  120  A    between atoms: _275  and  _276
REMARK  121  A    between atoms: _279  and  _281
REMARK  122  A    between atoms: _281  and  _282
REMARK  123  A    between atoms: _285  and  _287
REMARK  124  A    between atoms: _287  and  _288
REMARK  125  A    between atoms: _287  and  _290
REMARK  126  A    between atoms: _290  and  _291
REMARK  127  A    between atoms: _291  and  _292
REMARK  128  A    between atoms: _297  and  _299
REMARK  129  A    between atoms: _299  and  _300
REMARK  130  A    between atoms: _299  and  _302
REMARK  131  A    between atoms: _302  and  _303
REMARK  132  A    between atoms: _306  and  _308
REMARK  133  A    between atoms: _308  and  _309
REMARK  134  A    between atoms: _311  and  _313
REMARK  135  A    between atoms: _313  and  _314
REMARK  136  A    between atoms: _313  and  _316
REMARK  137  A    between atoms: _316  and  _317
REMARK  138  A    between atoms: _320  and  _322
REMARK  139  A    between atoms: _322  and  _323
REMARK  140  A    between atoms: _322  and  _325
REMARK  141  A    between atoms: _325  and  _326
REMARK  142  A    between atoms: _329  and  _331
REMARK  143  A    between atoms: _331  and  _332
REMARK  144  A    between atoms: _331  and  _334
REMARK  145  A    between atoms: _334  and  _335
REMARK  146  A    between atoms: _337  and  _339
REMARK  147  A    between atoms: _339  and  _340
REMARK  148  A    between atoms: _339  and  _342
REMARK  149  A    between atoms: _342  and  _343
REMARK  150  A    between atoms: _343  and  _344
REMARK  151  A    between atoms: _344  and  _345
REMARK  152  A    between atoms: _345  and  _346
REMARK  153  A    between atoms: _351  and  _352
REMARK  154  A    between atoms: _357  and  _359
REMARK  155  A    between atoms: _359  and  _360
REMARK  156  A    between atoms: _359  and  _362
REMARK  157  A    between atoms: _362  and  _363
REMARK  158  A    between atoms: _366  and  _368
REMARK  159  A    between atoms: _368  and  _369
REMARK  160  A    between atoms: _372  and  _374
REMARK  161  A    between atoms: _374  and  _375
REMARK  162  A    between atoms: _374  and  _377
REMARK  163  A    between atoms: _377  and  _378
REMARK  164  A    between atoms: _383  and  _385
REMARK  165  A    between atoms: _385  and  _386
REMARK  166  A    between atoms: _385  and  _388
REMARK  167  A    between atoms: _391  and  _393
REMARK  168  A    between atoms: _393  and  _394
REMARK  169  A    between atoms: _393  and  _396
REMARK  170  A    between atoms: _396  and  _397
REMARK  171  A    between atoms: _397  and  _398
REMARK  172  A    between atoms: _398  and  _399
REMARK  173  A    between atoms: _408  and  _410
REMARK  174  A    between atoms: _410  and  _411
REMARK  175  A    between atoms: _410  and  _413
REMARK  176  A    between atoms: _413  and  _414
REMARK  177  A    between atoms: _419  and  _421
REMARK  178  A    between atoms: _421  and  _422
REMARK  179  A    between atoms: _421  and  _424
REMARK  180  A    between atoms: _424  and  _425
REMARK  181  A    between atoms: _431  and  _433
REMARK  182  A    between atoms: _433  and  _434
REMARK  183  A    between atoms: _433  and  _436
REMARK  184  A    between atoms: _436  and  _437
REMARK  185  A    between atoms: _439  and  _441
REMARK  186  A    between atoms: _441  and  _442
REMARK  187  A    between atoms: _441  and  _444
REMARK  188  A    between atoms: _444  and  _445
REMARK  189  A    between atoms: _445  and  _446
REMARK  190  A    between atoms: _449  and  _451
REMARK  191  A    between atoms: _451  and  _452
REMARK  192  A    between atoms: _451  and  _454
REMARK  193  A    between atoms: _454  and  _455
REMARK  194  A    between atoms: _458  and  _460
REMARK  195  A    between atoms: _460  and  _461
REMARK  196  A    between atoms: _460  and  _463
REMARK  197  A    between atoms: _463  and  _464
REMARK  198  A    between atoms: _466  and  _468
REMARK  199  A    between atoms: _468  and  _469
REMARK  200  A    between atoms: _468  and  _471
REMARK  201  A    between atoms: _471  and  _472
REMARK  202  A    between atoms: _472  and  _473
REMARK  203  A    between atoms: _476  and  _478
REMARK  204  A    between atoms: _478  and  _479
REMARK  205  A    between atoms: _478  and  _481
REMARK  206  A    between atoms: _481  and  _482
REMARK  207  A    between atoms: _488  and  _490
REMARK  208  A    between atoms: _490  and  _491
REMARK  209  A    between atoms: _490  and  _493
REMARK  210  A    between atoms: _493  and  _494
REMARK  211  A    between atoms: _499  and  _500
REMARK  212  A    between atoms: _502  and  _504
REMARK  213  A    between atoms: _504  and  _505
REMARK  214  A    between atoms: _504  and  _507
REMARK  215  A    between atoms: _507  and  _508
REMARK  216  A    between atoms: _511  and  _513
REMARK  217  A    between atoms: _513  and  _514
REMARK  218  A    between atoms: _513  and  _516
REMARK  219  A    between atoms: _516  and  _517
REMARK  220  A    between atoms: _520  and  _522
REMARK  221  A    between atoms: _522  and  _523
REMARK  222  A    between atoms: _522  and  _525
REMARK  223  A    between atoms: _525  and  _526
REMARK  224  A    between atoms: _531  and  _533
REMARK  225  A    between atoms: _533  and  _534
REMARK  226  A    between atoms: _533  and  _536
REMARK                            x       y       z     vdW  Elec       q    Type
REMARK                         _______ _______ _______ _____ _____    ______ ____
ROOT
ATOM      1  O   HOH     1      14.348  41.439  13.984  0.00  0.00    +0.000 OA
ENDROOT
TORSDOF 0
REMARK  Name = ../refined-set-2016/1m0q/1m0q_pocket.pdb
REMARK  226 active torsions:
REMARK  status: ('A' for Active; 'I' for Inactive)
REMARK    1  A    between atoms: _1  and  _3
REMARK    2  A    between atoms: _3  and  _4
REMARK    3  A    between atoms: _3  and  _6
REMARK    4  A    between atoms: _6  and  _7
REMARK    5  A    between atoms: _10  and  _12
REMARK    6  A    between atoms: _12  and  _13
REMARK    7  A    between atoms: _15  and  _17
REMARK    8  A    between atoms: _17  and  _18
REMARK    9  A    between atoms: _17  and  _20
REMARK   10  A    between atoms: _20  and  _21
REMARK   11  A    between atoms: _21  and  _22
REMARK   12  A    between atoms: _27  and  _29
REMARK   13  A    between atoms: _29  and  _30
REMARK   14  A    between atoms: _29  and  _32
REMARK   15  A    between atoms: _32  and  _33
REMARK   16  A    between atoms: _33  and  _34
REMARK   17  A    between atoms: _36  and  _38
REMARK   18  A    between atoms: _38  and  _39
REMARK   19  A    between atoms: _38  and  _41
REMARK   20  A    between atoms: _41  and  _42
REMARK   21  A    between atoms: _44  and  _46
REMARK   22  A    between atoms: _46  and  _47
REMARK   23  A    between atoms: _46  and  _49
REMARK   24  A    between atoms: _49  and  _50
REMARK   25  A    between atoms: _52  and  _54
REMARK   26  A    between atoms: _54  and  _55
REMARK   27  A    between atoms: _54  and  _57
REMARK   28  A    between atoms: _57  and  _58
REMARK   29  A    between atoms: _61  and  _63
REMARK   30  A    between atoms: _63  and  _64
REMARK   31  A    between atoms: _66  and  _68
REMARK   32  A    between atoms: _68  and  _69
REMARK   33  A    between atoms: _72  and  _74
REMARK   34  A    between atoms: _74  and  _75
REMARK   35  A    between atoms: _74  and  _77
REMARK   36  A    between atoms: _77  and  _78
REMARK   37  A    between atoms: _78  and  _79
REMARK   38  A    between atoms: _82  and  _84
REMARK   39  A    between atoms: _84  and  _85
REMARK   40  A    between atoms: _84  and  _87
REMARK   41  A    between atoms: _87  and  _88
REMARK   42  A    between atoms: _90  and  _92
REMARK   43  A    between atoms: _92  and  _93
REMARK   44  A    between atoms: _92  and  _95
REMARK   45  A    between atoms: _95  and  _96
REMARK   46  A    between atoms: _101  and  _103
REMARK   47  A    between atoms: _103  and  _104
REMARK   48  A    between atoms: _103  and  _106
REMARK   49  A    between atoms: _106  and  _107
REMARK   50  A    between atoms: _107  and  _108
REMARK   51  A    between atoms: _111  and  _113
REMARK   52  A    between atoms: _113  and  _114
REMARK   53  A    between atoms: _113  and  _116
REMARK   54  A    between atoms: _116  and  _117
REMARK   55  A    between atoms: _119  and  _121
REMARK   56  A    between atoms: _121  and  _122
REMARK   57  A    between atoms: _121  and  _124
REMARK   58  A    between atoms: _124  and  _125
REMARK   59  A    between atoms: _135  and  _137
REMARK   60  A    between atoms: _137  and  _138
REMARK   61  A    between atoms: _137  and  _140
REMARK   62  A    between atoms: _140  and  _141
REMARK   63  A    between atoms: _146  and  _148
REMARK   64  A    between atoms: _148  and  _149
REMARK   65  A    between atoms: _151  and  _153
REMARK   66  A    between atoms: _153  and  _154
REMARK   67  A    between atoms: _153  and  _156
REMARK   68  A    between atoms: _156  and  _157
REMARK   69  A    between atoms: _157  and  _158
REMARK   70  A    between atoms: _160  and  _162
REMARK   71  A    between atoms: _162  and  _163
REMARK   72  A    between atoms: _162  and  _165
REMARK   73  A    between atoms: _165  and  _166
REMARK   74  A    between atoms: _169  and  _171
REMARK   75  A    between atoms: _171  and  _172
REMARK   76  A    between atoms: _175  and  _177
REMARK   77  A    between atoms: _177  and  _178
REMARK   78  A    between atoms: _177  and  _180
REMARK   79  A    between atoms: _180  and  _181
REMARK   80  A    between atoms: _184  and  _186
REMARK   81  A    between atoms: _186  and  _187
REMARK   82  A    between atoms: _186  and  _189
REMARK   83  A    between atoms: _189  and  _190
REMARK   84  A    between atoms: _193  and  _195
REMARK   85  A    between atoms: _195  and  _196
REMARK   86  A    between atoms: _199  and  _201
REMARK   87  A    between atoms: _201  and  _202
REMARK   88  A    between atoms: _201  and  _204
REMARK   89  A    between atoms: _204  and  _205
REMARK   90  A    between atoms: _205  and  _206
REMARK   91  A    between atoms: _210  and  _211
REMARK   92  A    between atoms: _216  and  _218
REMARK   93  A    between atoms: _218  and  _219
REMARK   94  A    between atoms: _218  and  _221
REMARK   95  A    between atoms: _221  and  _222
REMARK   96  A    between atoms: _225  and  _227
REMARK   97  A    between atoms: _227  and  _228
REMARK   98  A    between atoms: _227  and  _230
REMARK   99  A    between atoms: _230  and  _231
REMARK  100  A    between atoms: _234  and  _236
REMARK  101  A    between atoms: _236  and  _237
REMARK  102  A    between atoms: _236  and  _239
REMARK  103  A    between atoms: _239  and  _240
REMARK  104  A    between atoms: _242  and  _244
REMARK  105  A    between atoms: _244  and  _245
REMARK  106  A    between atoms: _244  and  _247
REMARK  107  A    between atoms: _247  and  _248
REMARK  108  A    between atoms: _250  and  _252
REMARK  109  A    between atoms: _252  and  _253
REMARK  110  A    between atoms: _255  and  _257
REMARK  111  A    between atoms: _257  and  _258
REMARK  112  A    between atoms: _260  and  _262
REMARK  113  A    between atoms: _262  and  _263
REMARK  114  A    between atoms: _262  and  _265
REMARK  115  A    between atoms: _265  and  _266
REMARK  116  A    between atoms: _269  and  _271
REMARK  117  A    between atoms: _271  and  _272
REMARK  118  A    between atoms: _271  and  _274
REMARK  119  A    between atoms: _274  and  _275
REMARK  120  A    between atoms: _275  and  _276
REMARK  121  A    between atoms: _279  and  _281
REMARK  122  A    between atoms: _281  and  _282
REMARK  123  A    between atoms: _285  and  _287
REMARK  124  A    between atoms: _287  and  _288
REMARK  125  A    between atoms: _287  and  _290
REMARK  126  A    between atoms: _290  and  _291
REMARK  127  A    between atoms: _291  and  _292
REMARK  128  A    between atoms: _297  and  _299
REMARK  129  A    between atoms: _299  and  _300
REMARK  130  A    between atoms: _299  and  _302
REMARK  131  A    between atoms: _302  and  _303
REMARK  132  A    between atoms: _306  and  _308
REMARK  133  A    between atoms: _308  and  _309
REMARK  134  A    between atoms: _311  and  _313
REMARK  135  A    between atoms: _313  and  _314
REMARK  136  A    between atoms: _313  and  _316
REMARK  137  A    between atoms: _316  and  _317
REMARK  138  A    between atoms: _320  and  _322
REMARK  139  A    between atoms: _322  and  _323
REMARK  140  A    between atoms: _322  and  _325
REMARK  141  A    between atoms: _325  and  _326
REMARK  142  A    between atoms: _329  and  _331
REMARK  143  A    between atoms: _331  and  _332
REMARK  144  A    between atoms: _331  and  _334
REMARK  145  A    between atoms: _334  and  _335
REMARK  146  A    between atoms: _337  and  _339
REMARK  147  A    between atoms: _339  and  _340
REMARK  148  A    between atoms: _339  and  _342
REMARK  149  A    between atoms: _342  and  _343
REMARK  150  A    between atoms: _343  and  _344
REMARK  151  A    between atoms: _344  and  _345
REMARK  152  A    between atoms: _345  and  _346
REMARK  153  A    between atoms: _351  and  _352
REMARK  154  A    between atoms: _357  and  _359
REMARK  155  A    between atoms: _359  and  _360
REMARK  156  A    between atoms: _359  and  _362
REMARK  157  A    between atoms: _362  and  _363
REMARK  158  A    between atoms: _366  and  _368
REMARK  159  A    between atoms: _368  and  _369
REMARK  160  A    between atoms: _372  and  _374
REMARK  161  A    between atoms: _374  and  _375
REMARK  162  A    between atoms: _374  and  _377
REMARK  163  A    between atoms: _377  and  _378
REMARK  164  A    between atoms: _383  and  _385
REMARK  165  A    between atoms: _385  and  _386
REMARK  166  A    between atoms: _385  and  _388
REMARK  167  A    between atoms: _391  and  _393
REMARK  168  A    between atoms: _393  and  _394
REMARK  169  A    between atoms: _393  and  _396
REMARK  170  A    between atoms: _396  and  _397
REMARK  171  A    between atoms: _397  and  _398
REMARK  172  A    between atoms: _398  and  _399
REMARK  173  A    between atoms: _408  and  _410
REMARK  174  A    between atoms: _410  and  _411
REMARK  175  A    between atoms: _410  and  _413
REMARK  176  A    between atoms: _413  and  _414
REMARK  177  A    between atoms: _419  and  _421
REMARK  178  A    between atoms: _421  and  _422
REMARK  179  A    between atoms: _421  and  _424
REMARK  180  A    between atoms: _424  and  _425
REMARK  181  A    between atoms: _431  and  _433
REMARK  182  A    between atoms: _433  and  _434
REMARK  183  A    between atoms: _433  and  _436
REMARK  184  A    between atoms: _436  and  _437
REMARK  185  A    between atoms: _439  and  _441
REMARK  186  A    between atoms: _441  and  _442
REMARK  187  A    between atoms: _441  and  _444
REMARK  188  A    between atoms: _444  and  _445
REMARK  189  A    between atoms: _445  and  _446
REMARK  190  A    between atoms: _449  and  _451
REMARK  191  A    between atoms: _451  and  _452
REMARK  192  A    between atoms: _451  and  _454
REMARK  193  A    between atoms: _454  and  _455
REMARK  194  A    between atoms: _458  and  _460
REMARK  195  A    between atoms: _460  and  _461
REMARK  196  A    between atoms: _460  and  _463
REMARK  197  A    between atoms: _463  and  _464
REMARK  198  A    between atoms: _466  and  _468
REMARK  199  A    between atoms: _468  and  _469
REMARK  200  A    between atoms: _468  and  _471
REMARK  201  A    between atoms: _471  and  _472
REMARK  202  A    between atoms: _472  and  _473
REMARK  203  A    between atoms: _476  and  _478
REMARK  204  A    between atoms: _478  and  _479
REMARK  205  A    between atoms: _478  and  _481
REMARK  206  A    between atoms: _481  and  _482
REMARK  207  A    between atoms: _488  and  _490
REMARK  208  A    between atoms: _490  and  _491
REMARK  209  A    between atoms: _490  and  _493
REMARK  210  A    between atoms: _493  and  _494
REMARK  211  A    between atoms: _499  and  _500
REMARK  212  A    between atoms: _502  and  _504
REMARK  213  A    between atoms: _504  and  _505
REMARK  214  A    between atoms: _504  and  _507
REMARK  215  A    between atoms: _507  and  _508
REMARK  216  A    between atoms: _511  and  _513
REMARK  217  A    between atoms: _513  and  _514
REMARK  218  A    between atoms: _513  and  _516
REMARK  219  A    between atoms: _516  and  _517
REMARK  220  A    between atoms: _520  and  _522
REMARK  221  A    between atoms: _522  and  _523
REMARK  222  A    between atoms: _522  and  _525
REMARK  223  A    between atoms: _525  and  _526
REMARK  224  A    between atoms: _531  and  _533
REMARK  225  A    between atoms: _533  and  _534
REMARK  226  A    between atoms: _533  and  _536
REMARK                            x       y       z     vdW  Elec       q    Type
REMARK                         _______ _______ _______ _____ _____    ______ ____
ROOT
ATOM      1  O   HOH     1      15.123  53.323  22.476  0.00  0.00    +0.000 OA
ENDROOT
TORSDOF 0
REMARK  Name = ../refined-set-2016/1m0q/1m0q_pocket.pdb
REMARK  226 active torsions:
REMARK  status: ('A' for Active; 'I' for Inactive)
REMARK    1  A    between atoms: _1  and  _3
REMARK    2  A    between atoms: _3  and  _4
REMARK    3  A    between atoms: _3  and  _6
REMARK    4  A    between atoms: _6  and  _7
REMARK    5  A    between atoms: _10  and  _12
REMARK    6  A    between atoms: _12  and  _13
REMARK    7  A    between atoms: _15  and  _17
REMARK    8  A    between atoms: _17  and  _18
REMARK    9  A    between atoms: _17  and  _20
REMARK   10  A    between atoms: _20  and  _21
REMARK   11  A    between atoms: _21  and  _22
REMARK   12  A    between atoms: _27  and  _29
REMARK   13  A    between atoms: _29  and  _30
REMARK   14  A    between atoms: _29  and  _32
REMARK   15  A    between atoms: _32  and  _33
REMARK   16  A    between atoms: _33  and  _34
REMARK   17  A    between atoms: _36  and  _38
REMARK   18  A    between atoms: _38  and  _39
REMARK   19  A    between atoms: _38  and  _41
REMARK   20  A    between atoms: _41  and  _42
REMARK   21  A    between atoms: _44  and  _46
REMARK   22  A    between atoms: _46  and  _47
REMARK   23  A    between atoms: _46  and  _49
REMARK   24  A    between atoms: _49  and  _50
REMARK   25  A    between atoms: _52  and  _54
REMARK   26  A    between atoms: _54  and  _55
REMARK   27  A    between atoms: _54  and  _57
REMARK   28  A    between atoms: _57  and  _58
REMARK   29  A    between atoms: _61  and  _63
REMARK   30  A    between atoms: _63  and  _64
REMARK   31  A    between atoms: _66  and  _68
REMARK   32  A    between atoms: _68  and  _69
REMARK   33  A    between atoms: _72  and  _74
REMARK   34  A    between atoms: _74  and  _75
REMARK   35  A    between atoms: _74  and  _77
REMARK   36  A    between atoms: _77  and  _78
REMARK   37  A    between atoms: _78  and  _79
REMARK   38  A    between atoms: _82  and  _84
REMARK   39  A    between atoms: _84  and  _85
REMARK   40  A    between atoms: _84  and  _87
REMARK   41  A    between atoms: _87  and  _88
REMARK   42  A    between atoms: _90  and  _92
REMARK   43  A    between atoms: _92  and  _93
REMARK   44  A    between atoms: _92  and  _95
REMARK   45  A    between atoms: _95  and  _96
REMARK   46  A    between atoms: _101  and  _103
REMARK   47  A    between atoms: _103  and  _104
REMARK   48  A    between atoms: _103  and  _106
REMARK   49  A    between atoms: _106  and  _107
REMARK   50  A    between atoms: _107  and  _108
REMARK   51  A    between atoms: _111  and  _113
REMARK   52  A    between atoms: _113  and  _114
REMARK   53  A    between atoms: _113  and  _116
REMARK   54  A    between atoms: _116  and  _117
REMARK   55  A    between atoms: _119  and  _121
REMARK   56  A    between atoms: _121  and  _122
REMARK   57  A    between atoms: _121  and  _124
REMARK   58  A    between atoms: _124  and  _125
REMARK   59  A    between atoms: _135  and  _137
REMARK   60  A    between atoms: _137  and  _138
REMARK   61  A    between atoms: _137  and  _140
REMARK   62  A    between atoms: _140  and  _141
REMARK   63  A    between atoms: _146  and  _148
REMARK   64  A    between atoms: _148  and  _149
REMARK   65  A    between atoms: _151  and  _153
REMARK   66  A    between atoms: _153  and  _154
REMARK   67  A    between atoms: _153  and  _156
REMARK   68  A    between atoms: _156  and  _157
REMARK   69  A    between atoms: _157  and  _158
REMARK   70  A    between atoms: _160  and  _162
REMARK   71  A    between atoms: _162  and  _163
REMARK   72  A    between atoms: _162  and  _165
REMARK   73  A    between atoms: _165  and  _166
REMARK   74  A    between atoms: _169  and  _171
REMARK   75  A    between atoms: _171  and  _172
REMARK   76  A    between atoms: _175  and  _177
REMARK   77  A    between atoms: _177  and  _178
REMARK   78  A    between atoms: _177  and  _180
REMARK   79  A    between atoms: _180  and  _181
REMARK   80  A    between atoms: _184  and  _186
REMARK   81  A    between atoms: _186  and  _187
REMARK   82  A    between atoms: _186  and  _189
REMARK   83  A    between atoms: _189  and  _190
REMARK   84  A    between atoms: _193  and  _195
REMARK   85  A    between atoms: _195  and  _196
REMARK   86  A    between atoms: _199  and  _201
REMARK   87  A    between atoms: _201  and  _202
REMARK   88  A    between atoms: _201  and  _204
REMARK   89  A    between atoms: _204  and  _205
REMARK   90  A    between atoms: _205  and  _206
REMARK   91  A    between atoms: _210  and  _211
REMARK   92  A    between atoms: _216  and  _218
REMARK   93  A    between atoms: _218  and  _219
REMARK   94  A    between atoms: _218  and  _221
REMARK   95  A    between atoms: _221  and  _222
REMARK   96  A    between atoms: _225  and  _227
REMARK   97  A    between atoms: _227  and  _228
REMARK   98  A    between atoms: _227  and  _230
REMARK   99  A    between atoms: _230  and  _231
REMARK  100  A    between atoms: _234  and  _236
REMARK  101  A    between atoms: _236  and  _237
REMARK  102  A    between atoms: _236  and  _239
REMARK  103  A    between atoms: _239  and  _240
REMARK  104  A    between atoms: _242  and  _244
REMARK  105  A    between atoms: _244  and  _245
REMARK  106  A    between atoms: _244  and  _247
REMARK  107  A    between atoms: _247  and  _248
REMARK  108  A    between atoms: _250  and  _252
REMARK  109  A    between atoms: _252  and  _253
REMARK  110  A    between atoms: _255  and  _257
REMARK  111  A    between atoms: _257  and  _258
REMARK  112  A    between atoms: _260  and  _262
REMARK  113  A    between atoms: _262  and  _263
REMARK  114  A    between atoms: _262  and  _265
REMARK  115  A    between atoms: _265  and  _266
REMARK  116  A    between atoms: _269  and  _271
REMARK  117  A    between atoms: _271  and  _272
REMARK  118  A    between atoms: _271  and  _274
REMARK  119  A    between atoms: _274  and  _275
REMARK  120  A    between atoms: _275  and  _276
REMARK  121  A    between atoms: _279  and  _281
REMARK  122  A    between atoms: _281  and  _282
REMARK  123  A    between atoms: _285  and  _287
REMARK  124  A    between atoms: _287  and  _288
REMARK  125  A    between atoms: _287  and  _290
REMARK  126  A    between atoms: _290  and  _291
REMARK  127  A    between atoms: _291  and  _292
REMARK  128  A    between atoms: _297  and  _299
REMARK  129  A    between atoms: _299  and  _300
REMARK  130  A    between atoms: _299  and  _302
REMARK  131  A    between atoms: _302  and  _303
REMARK  132  A    between atoms: _306  and  _308
REMARK  133  A    between atoms: _308  and  _309
REMARK  134  A    between atoms: _311  and  _313
REMARK  135  A    between atoms: _313  and  _314
REMARK  136  A    between atoms: _313  and  _316
REMARK  137  A    between atoms: _316  and  _317
REMARK  138  A    between atoms: _320  and  _322
REMARK  139  A    between atoms: _322  and  _323
REMARK  140  A    between atoms: _322  and  _325
REMARK  141  A    between atoms: _325  and  _326
REMARK  142  A    between atoms: _329  and  _331
REMARK  143  A    between atoms: _331  and  _332
REMARK  144  A    between atoms: _331  and  _334
REMARK  145  A    between atoms: _334  and  _335
REMARK  146  A    between atoms: _337  and  _339
REMARK  147  A    between atoms: _339  and  _340
REMARK  148  A    between atoms: _339  and  _342
REMARK  149  A    between atoms: _342  and  _343
REMARK  150  A    between atoms: _343  and  _344
REMARK  151  A    between atoms: _344  and  _345
REMARK  152  A    between atoms: _345  and  _346
REMARK  153  A    between atoms: _351  and  _352
REMARK  154  A    between atoms: _357  and  _359
REMARK  155  A    between atoms: _359  and  _360
REMARK  156  A    between atoms: _359  and  _362
REMARK  157  A    between atoms: _362  and  _363
REMARK  158  A    between atoms: _366  and  _368
REMARK  159  A    between atoms: _368  and  _369
REMARK  160  A    between atoms: _372  and  _374
REMARK  161  A    between atoms: _374  and  _375
REMARK  162  A    between atoms: _374  and  _377
REMARK  163  A    between atoms: _377  and  _378
REMARK  164  A    between atoms: _383  and  _385
REMARK  165  A    between atoms: _385  and  _386
REMARK  166  A    between atoms: _385  and  _388
REMARK  167  A    between atoms: _391  and  _393
REMARK  168  A    between atoms: _393  and  _394
REMARK  169  A    between atoms: _393  and  _396
REMARK  170  A    between atoms: _396  and  _397
REMARK  171  A    between atoms: _397  and  _398
REMARK  172  A    between atoms: _398  and  _399
REMARK  173  A    between atoms: _408  and  _410
REMARK  174  A    between atoms: _410  and  _411
REMARK  175  A    between atoms: _410  and  _413
REMARK  176  A    between atoms: _413  and  _414
REMARK  177  A    between atoms: _419  and  _421
REMARK  178  A    between atoms: _421  and  _422
REMARK  179  A    between atoms: _421  and  _424
REMARK  180  A    between atoms: _424  and  _425
REMARK  181  A    between atoms: _431  and  _433
REMARK  182  A    between atoms: _433  and  _434
REMARK  183  A    between atoms: _433  and  _436
REMARK  184  A    between atoms: _436  and  _437
REMARK  185  A    between atoms: _439  and  _441
REMARK  186  A    between atoms: _441  and  _442
REMARK  187  A    between atoms: _441  and  _444
REMARK  188  A    between atoms: _444  and  _445
REMARK  189  A    between atoms: _445  and  _446
REMARK  190  A    between atoms: _449  and  _451
REMARK  191  A    between atoms: _451  and  _452
REMARK  192  A    between atoms: _451  and  _454
REMARK  193  A    between atoms: _454  and  _455
REMARK  194  A    between atoms: _458  and  _460
REMARK  195  A    between atoms: _460  and  _461
REMARK  196  A    between atoms: _460  and  _463
REMARK  197  A    between atoms: _463  and  _464
REMARK  198  A    between atoms: _466  and  _468
REMARK  199  A    between atoms: _468  and  _469
REMARK  200  A    between atoms: _468  and  _471
REMARK  201  A    between atoms: _471  and  _472
REMARK  202  A    between atoms: _472  and  _473
REMARK  203  A    between atoms: _476  and  _478
REMARK  204  A    between atoms: _478  and  _479
REMARK  205  A    between atoms: _478  and  _481
REMARK  206  A    between atoms: _481  and  _482
REMARK  207  A    between atoms: _488  and  _490
REMARK  208  A    between atoms: _490  and  _491
REMARK  209  A    between atoms: _490  and  _493
REMARK  210  A    between atoms: _493  and  _494
REMARK  211  A    between atoms: _499  and  _500
REMARK  212  A    between atoms: _502  and  _504
REMARK  213  A    between atoms: _504  and  _505
REMARK  214  A    between atoms: _504  and  _507
REMARK  215  A    between atoms: _507  and  _508
REMARK  216  A    between atoms: _511  and  _513
REMARK  217  A    between atoms: _513  and  _514
REMARK  218  A    between atoms: _513  and  _516
REMARK  219  A    between atoms: _516  and  _517
REMARK  220  A    between atoms: _520  and  _522
REMARK  221  A    between atoms: _522  and  _523
REMARK  222  A    between atoms: _522  and  _525
REMARK  223  A    between atoms: _525  and  _526
REMARK  224  A    between atoms: _531  and  _533
REMARK  225  A    between atoms: _533  and  _534
REMARK  226  A    between atoms: _533  and  _536
REMARK                            x       y       z     vdW  Elec       q    Type
REMARK                         _______ _______ _______ _____ _____    ______ ____
ROOT
ATOM      1  O   HOH     1      23.737  47.131  16.584  0.00  0.00    +0.000 OA
ENDROOT
TORSDOF 0
REMARK  Name = ../refined-set-2016/1m0q/1m0q_pocket.pdb
REMARK  226 active torsions:
REMARK  status: ('A' for Active; 'I' for Inactive)
REMARK    1  A    between atoms: _1  and  _3
REMARK    2  A    between atoms: _3  and  _4
REMARK    3  A    between atoms: _3  and  _6
REMARK    4  A    between atoms: _6  and  _7
REMARK    5  A    between atoms: _10  and  _12
REMARK    6  A    between atoms: _12  and  _13
REMARK    7  A    between atoms: _15  and  _17
REMARK    8  A    between atoms: _17  and  _18
REMARK    9  A    between atoms: _17  and  _20
REMARK   10  A    between atoms: _20  and  _21
REMARK   11  A    between atoms: _21  and  _22
REMARK   12  A    between atoms: _27  and  _29
REMARK   13  A    between atoms: _29  and  _30
REMARK   14  A    between atoms: _29  and  _32
REMARK   15  A    between atoms: _32  and  _33
REMARK   16  A    between atoms: _33  and  _34
REMARK   17  A    between atoms: _36  and  _38
REMARK   18  A    between atoms: _38  and  _39
REMARK   19  A    between atoms: _38  and  _41
REMARK   20  A    between atoms: _41  and  _42
REMARK   21  A    between atoms: _44  and  _46
REMARK   22  A    between atoms: _46  and  _47
REMARK   23  A    between atoms: _46  and  _49
REMARK   24  A    between atoms: _49  and  _50
REMARK   25  A    between atoms: _52  and  _54
REMARK   26  A    between atoms: _54  and  _55
REMARK   27  A    between atoms: _54  and  _57
REMARK   28  A    between atoms: _57  and  _58
REMARK   29  A    between atoms: _61  and  _63
REMARK   30  A    between atoms: _63  and  _64
REMARK   31  A    between atoms: _66  and  _68
REMARK   32  A    between atoms: _68  and  _69
REMARK   33  A    between atoms: _72  and  _74
REMARK   34  A    between atoms: _74  and  _75
REMARK   35  A    between atoms: _74  and  _77
REMARK   36  A    between atoms: _77  and  _78
REMARK   37  A    between atoms: _78  and  _79
REMARK   38  A    between atoms: _82  and  _84
REMARK   39  A    between atoms: _84  and  _85
REMARK   40  A    between atoms: _84  and  _87
REMARK   41  A    between atoms: _87  and  _88
REMARK   42  A    between atoms: _90  and  _92
REMARK   43  A    between atoms: _92  and  _93
REMARK   44  A    between atoms: _92  and  _95
REMARK   45  A    between atoms: _95  and  _96
REMARK   46  A    between atoms: _101  and  _103
REMARK   47  A    between atoms: _103  and  _104
REMARK   48  A    between atoms: _103  and  _106
REMARK   49  A    between atoms: _106  and  _107
REMARK   50  A    between atoms: _107  and  _108
REMARK   51  A    between atoms: _111  and  _113
REMARK   52  A    between atoms: _113  and  _114
REMARK   53  A    between atoms: _113  and  _116
REMARK   54  A    between atoms: _116  and  _117
REMARK   55  A    between atoms: _119  and  _121
REMARK   56  A    between atoms: _121  and  _122
REMARK   57  A    between atoms: _121  and  _124
REMARK   58  A    between atoms: _124  and  _125
REMARK   59  A    between atoms: _135  and  _137
REMARK   60  A    between atoms: _137  and  _138
REMARK   61  A    between atoms: _137  and  _140
REMARK   62  A    between atoms: _140  and  _141
REMARK   63  A    between atoms: _146  and  _148
REMARK   64  A    between atoms: _148  and  _149
REMARK   65  A    between atoms: _151  and  _153
REMARK   66  A    between atoms: _153  and  _154
REMARK   67  A    between atoms: _153  and  _156
REMARK   68  A    between atoms: _156  and  _157
REMARK   69  A    between atoms: _157  and  _158
REMARK   70  A    between atoms: _160  and  _162
REMARK   71  A    between atoms: _162  and  _163
REMARK   72  A    between atoms: _162  and  _165
REMARK   73  A    between atoms: _165  and  _166
REMARK   74  A    between atoms: _169  and  _171
REMARK   75  A    between atoms: _171  and  _172
REMARK   76  A    between atoms: _175  and  _177
REMARK   77  A    between atoms: _177  and  _178
REMARK   78  A    between atoms: _177  and  _180
REMARK   79  A    between atoms: _180  and  _181
REMARK   80  A    between atoms: _184  and  _186
REMARK   81  A    between atoms: _186  and  _187
REMARK   82  A    between atoms: _186  and  _189
REMARK   83  A    between atoms: _189  and  _190
REMARK   84  A    between atoms: _193  and  _195
REMARK   85  A    between atoms: _195  and  _196
REMARK   86  A    between atoms: _199  and  _201
REMARK   87  A    between atoms: _201  and  _202
REMARK   88  A    between atoms: _201  and  _204
REMARK   89  A    between atoms: _204  and  _205
REMARK   90  A    between atoms: _205  and  _206
REMARK   91  A    between atoms: _210  and  _211
REMARK   92  A    between atoms: _216  and  _218
REMARK   93  A    between atoms: _218  and  _219
REMARK   94  A    between atoms: _218  and  _221
REMARK   95  A    between atoms: _221  and  _222
REMARK   96  A    between atoms: _225  and  _227
REMARK   97  A    between atoms: _227  and  _228
REMARK   98  A    between atoms: _227  and  _230
REMARK   99  A    between atoms: _230  and  _231
REMARK  100  A    between atoms: _234  and  _236
REMARK  101  A    between atoms: _236  and  _237
REMARK  102  A    between atoms: _236  and  _239
REMARK  103  A    between atoms: _239  and  _240
REMARK  104  A    between atoms: _242  and  _244
REMARK  105  A    between atoms: _244  and  _245
REMARK  106  A    between atoms: _244  and  _247
REMARK  107  A    between atoms: _247  and  _248
REMARK  108  A    between atoms: _250  and  _252
REMARK  109  A    between atoms: _252  and  _253
REMARK  110  A    between atoms: _255  and  _257
REMARK  111  A    between atoms: _257  and  _258
REMARK  112  A    between atoms: _260  and  _262
REMARK  113  A    between atoms: _262  and  _263
REMARK  114  A    between atoms: _262  and  _265
REMARK  115  A    between atoms: _265  and  _266
REMARK  116  A    between atoms: _269  and  _271
REMARK  117  A    between atoms: _271  and  _272
REMARK  118  A    between atoms: _271  and  _274
REMARK  119  A    between atoms: _274  and  _275
REMARK  120  A    between atoms: _275  and  _276
REMARK  121  A    between atoms: _279  and  _281
REMARK  122  A    between atoms: _281  and  _282
REMARK  123  A    between atoms: _285  and  _287
REMARK  124  A    between atoms: _287  and  _288
REMARK  125  A    between atoms: _287  and  _290
REMARK  126  A    between atoms: _290  and  _291
REMARK  127  A    between atoms: _291  and  _292
REMARK  128  A    between atoms: _297  and  _299
REMARK  129  A    between atoms: _299  and  _300
REMARK  130  A    between atoms: _299  and  _302
REMARK  131  A    between atoms: _302  and  _303
REMARK  132  A    between atoms: _306  and  _308
REMARK  133  A    between atoms: _308  and  _309
REMARK  134  A    between atoms: _311  and  _313
REMARK  135  A    between atoms: _313  and  _314
REMARK  136  A    between atoms: _313  and  _316
REMARK  137  A    between atoms: _316  and  _317
REMARK  138  A    between atoms: _320  and  _322
REMARK  139  A    between atoms: _322  and  _323
REMARK  140  A    between atoms: _322  and  _325
REMARK  141  A    between atoms: _325  and  _326
REMARK  142  A    between atoms: _329  and  _331
REMARK  143  A    between atoms: _331  and  _332
REMARK  144  A    between atoms: _331  and  _334
REMARK  145  A    between atoms: _334  and  _335
REMARK  146  A    between atoms: _337  and  _339
REMARK  147  A    between atoms: _339  and  _340
REMARK  148  A    between atoms: _339  and  _342
REMARK  149  A    between atoms: _342  and  _343
REMARK  150  A    between atoms: _343  and  _344
REMARK  151  A    between atoms: _344  and  _345
REMARK  152  A    between atoms: _345  and  _346
REMARK  153  A    between atoms: _351  and  _352
REMARK  154  A    between atoms: _357  and  _359
REMARK  155  A    between atoms: _359  and  _360
REMARK  156  A    between atoms: _359  and  _362
REMARK  157  A    between atoms: _362  and  _363
REMARK  158  A    between atoms: _366  and  _368
REMARK  159  A    between atoms: _368  and  _369
REMARK  160  A    between atoms: _372  and  _374
REMARK  161  A    between atoms: _374  and  _375
REMARK  162  A    between atoms: _374  and  _377
REMARK  163  A    between atoms: _377  and  _378
REMARK  164  A    between atoms: _383  and  _385
REMARK  165  A    between atoms: _385  and  _386
REMARK  166  A    between atoms: _385  and  _388
REMARK  167  A    between atoms: _391  and  _393
REMARK  168  A    between atoms: _393  and  _394
REMARK  169  A    between atoms: _393  and  _396
REMARK  170  A    between atoms: _396  and  _397
REMARK  171  A    between atoms: _397  and  _398
REMARK  172  A    between atoms: _398  and  _399
REMARK  173  A    between atoms: _408  and  _410
REMARK  174  A    between atoms: _410  and  _411
REMARK  175  A    between atoms: _410  and  _413
REMARK  176  A    between atoms: _413  and  _414
REMARK  177  A    between atoms: _419  and  _421
REMARK  178  A    between atoms: _421  and  _422
REMARK  179  A    between atoms: _421  and  _424
REMARK  180  A    between atoms: _424  and  _425
REMARK  181  A    between atoms: _431  and  _433
REMARK  182  A    between atoms: _433  and  _434
REMARK  183  A    between atoms: _433  and  _436
REMARK  184  A    between atoms: _436  and  _437
REMARK  185  A    between atoms: _439  and  _441
REMARK  186  A    between atoms: _441  and  _442
REMARK  187  A    between atoms: _441  and  _444
REMARK  188  A    between atoms: _444  and  _445
REMARK  189  A    between atoms: _445  and  _446
REMARK  190  A    between atoms: _449  and  _451
REMARK  191  A    between atoms: _451  and  _452
REMARK  192  A    between atoms: _451  and  _454
REMARK  193  A    between atoms: _454  and  _455
REMARK  194  A    between atoms: _458  and  _460
REMARK  195  A    between atoms: _460  and  _461
REMARK  196  A    between atoms: _460  and  _463
REMARK  197  A    between atoms: _463  and  _464
REMARK  198  A    between atoms: _466  and  _468
REMARK  199  A    between atoms: _468  and  _469
REMARK  200  A    between atoms: _468  and  _471
REMARK  201  A    between atoms: _471  and  _472
REMARK  202  A    between atoms: _472  and  _473
REMARK  203  A    between atoms: _476  and  _478
REMARK  204  A    between atoms: _478  and  _479
REMARK  205  A    between atoms: _478  and  _481
REMARK  206  A    between atoms: _481  and  _482
REMARK  207  A    between atoms: _488  and  _490
REMARK  208  A    between atoms: _490  and  _491
REMARK  209  A    between atoms: _490  and  _493
REMARK  210  A    between atoms: _493  and  _494
REMARK  211  A    between atoms: _499  and  _500
REMARK  212  A    between atoms: _502  and  _504
REMARK  213  A    between atoms: _504  and  _505
REMARK  214  A    between atoms: _504  and  _507
REMARK  215  A    between atoms: _507  and  _508
REMARK  216  A    between atoms: _511  and  _513
REMARK  217  A    between atoms: _513  and  _514
REMARK  218  A    between atoms: _513  and  _516
REMARK  219  A    between atoms: _516  and  _517
REMARK  220  A    between atoms: _520  and  _522
REMARK  221  A    between atoms: _522  and  _523
REMARK  222  A    between atoms: _522  and  _525
REMARK  223  A    between atoms: _525  and  _526
REMARK  224  A    between atoms: _531  and  _533
REMARK  225  A    between atoms: _533  and  _534
REMARK  226  A    between atoms: _533  and  _536
REMARK                            x       y       z     vdW  Elec       q    Type
REMARK                         _______ _______ _______ _____ _____    ______ ____
ROOT
ATOM      1  O   HOH     1      22.544  43.551  19.042  0.00  0.00    +0.000 OA
ENDROOT
TORSDOF 0
REMARK  Name = ../refined-set-2016/1m0q/1m0q_pocket.pdb
REMARK  226 active torsions:
REMARK  status: ('A' for Active; 'I' for Inactive)
REMARK    1  A    between atoms: _1  and  _3
REMARK    2  A    between atoms: _3  and  _4
REMARK    3  A    between atoms: _3  and  _6
REMARK    4  A    between atoms: _6  and  _7
REMARK    5  A    between atoms: _10  and  _12
REMARK    6  A    between atoms: _12  and  _13
REMARK    7  A    between atoms: _15  and  _17
REMARK    8  A    between atoms: _17  and  _18
REMARK    9  A    between atoms: _17  and  _20
REMARK   10  A    between atoms: _20  and  _21
REMARK   11  A    between atoms: _21  and  _22
REMARK   12  A    between atoms: _27  and  _29
REMARK   13  A    between atoms: _29  and  _30
REMARK   14  A    between atoms: _29  and  _32
REMARK   15  A    between atoms: _32  and  _33
REMARK   16  A    between atoms: _33  and  _34
REMARK   17  A    between atoms: _36  and  _38
REMARK   18  A    between atoms: _38  and  _39
REMARK   19  A    between atoms: _38  and  _41
REMARK   20  A    between atoms: _41  and  _42
REMARK   21  A    between atoms: _44  and  _46
REMARK   22  A    between atoms: _46  and  _47
REMARK   23  A    between atoms: _46  and  _49
REMARK   24  A    between atoms: _49  and  _50
REMARK   25  A    between atoms: _52  and  _54
REMARK   26  A    between atoms: _54  and  _55
REMARK   27  A    between atoms: _54  and  _57
REMARK   28  A    between atoms: _57  and  _58
REMARK   29  A    between atoms: _61  and  _63
REMARK   30  A    between atoms: _63  and  _64
REMARK   31  A    between atoms: _66  and  _68
REMARK   32  A    between atoms: _68  and  _69
REMARK   33  A    between atoms: _72  and  _74
REMARK   34  A    between atoms: _74  and  _75
REMARK   35  A    between atoms: _74  and  _77
REMARK   36  A    between atoms: _77  and  _78
REMARK   37  A    between atoms: _78  and  _79
REMARK   38  A    between atoms: _82  and  _84
REMARK   39  A    between atoms: _84  and  _85
REMARK   40  A    between atoms: _84  and  _87
REMARK   41  A    between atoms: _87  and  _88
REMARK   42  A    between atoms: _90  and  _92
REMARK   43  A    between atoms: _92  and  _93
REMARK   44  A    between atoms: _92  and  _95
REMARK   45  A    between atoms: _95  and  _96
REMARK   46  A    between atoms: _101  and  _103
REMARK   47  A    between atoms: _103  and  _104
REMARK   48  A    between atoms: _103  and  _106
REMARK   49  A    between atoms: _106  and  _107
REMARK   50  A    between atoms: _107  and  _108
REMARK   51  A    between atoms: _111  and  _113
REMARK   52  A    between atoms: _113  and  _114
REMARK   53  A    between atoms: _113  and  _116
REMARK   54  A    between atoms: _116  and  _117
REMARK   55  A    between atoms: _119  and  _121
REMARK   56  A    between atoms: _121  and  _122
REMARK   57  A    between atoms: _121  and  _124
REMARK   58  A    between atoms: _124  and  _125
REMARK   59  A    between atoms: _135  and  _137
REMARK   60  A    between atoms: _137  and  _138
REMARK   61  A    between atoms: _137  and  _140
REMARK   62  A    between atoms: _140  and  _141
REMARK   63  A    between atoms: _146  and  _148
REMARK   64  A    between atoms: _148  and  _149
REMARK   65  A    between atoms: _151  and  _153
REMARK   66  A    between atoms: _153  and  _154
REMARK   67  A    between atoms: _153  and  _156
REMARK   68  A    between atoms: _156  and  _157
REMARK   69  A    between atoms: _157  and  _158
REMARK   70  A    between atoms: _160  and  _162
REMARK   71  A    between atoms: _162  and  _163
REMARK   72  A    between atoms: _162  and  _165
REMARK   73  A    between atoms: _165  and  _166
REMARK   74  A    between atoms: _169  and  _171
REMARK   75  A    between atoms: _171  and  _172
REMARK   76  A    between atoms: _175  and  _177
REMARK   77  A    between atoms: _177  and  _178
REMARK   78  A    between atoms: _177  and  _180
REMARK   79  A    between atoms: _180  and  _181
REMARK   80  A    between atoms: _184  and  _186
REMARK   81  A    between atoms: _186  and  _187
REMARK   82  A    between atoms: _186  and  _189
REMARK   83  A    between atoms: _189  and  _190
REMARK   84  A    between atoms: _193  and  _195
REMARK   85  A    between atoms: _195  and  _196
REMARK   86  A    between atoms: _199  and  _201
REMARK   87  A    between atoms: _201  and  _202
REMARK   88  A    between atoms: _201  and  _204
REMARK   89  A    between atoms: _204  and  _205
REMARK   90  A    between atoms: _205  and  _206
REMARK   91  A    between atoms: _210  and  _211
REMARK   92  A    between atoms: _216  and  _218
REMARK   93  A    between atoms: _218  and  _219
REMARK   94  A    between atoms: _218  and  _221
REMARK   95  A    between atoms: _221  and  _222
REMARK   96  A    between atoms: _225  and  _227
REMARK   97  A    between atoms: _227  and  _228
REMARK   98  A    between atoms: _227  and  _230
REMARK   99  A    between atoms: _230  and  _231
REMARK  100  A    between atoms: _234  and  _236
REMARK  101  A    between atoms: _236  and  _237
REMARK  102  A    between atoms: _236  and  _239
REMARK  103  A    between atoms: _239  and  _240
REMARK  104  A    between atoms: _242  and  _244
REMARK  105  A    between atoms: _244  and  _245
REMARK  106  A    between atoms: _244  and  _247
REMARK  107  A    between atoms: _247  and  _248
REMARK  108  A    between atoms: _250  and  _252
REMARK  109  A    between atoms: _252  and  _253
REMARK  110  A    between atoms: _255  and  _257
REMARK  111  A    between atoms: _257  and  _258
REMARK  112  A    between atoms: _260  and  _262
REMARK  113  A    between atoms: _262  and  _263
REMARK  114  A    between atoms: _262  and  _265
REMARK  115  A    between atoms: _265  and  _266
REMARK  116  A    between atoms: _269  and  _271
REMARK  117  A    between atoms: _271  and  _272
REMARK  118  A    between atoms: _271  and  _274
REMARK  119  A    between atoms: _274  and  _275
REMARK  120  A    between atoms: _275  and  _276
REMARK  121  A    between atoms: _279  and  _281
REMARK  122  A    between atoms: _281  and  _282
REMARK  123  A    between atoms: _285  and  _287
REMARK  124  A    between atoms: _287  and  _288
REMARK  125  A    between atoms: _287  and  _290
REMARK  126  A    between atoms: _290  and  _291
REMARK  127  A    between atoms: _291  and  _292
REMARK  128  A    between atoms: _297  and  _299
REMARK  129  A    between atoms: _299  and  _300
REMARK  130  A    between atoms: _299  and  _302
REMARK  131  A    between atoms: _302  and  _303
REMARK  132  A    between atoms: _306  and  _308
REMARK  133  A    between atoms: _308  and  _309
REMARK  134  A    between atoms: _311  and  _313
REMARK  135  A    between atoms: _313  and  _314
REMARK  136  A    between atoms: _313  and  _316
REMARK  137  A    between atoms: _316  and  _317
REMARK  138  A    between atoms: _320  and  _322
REMARK  139  A    between atoms: _322  and  _323
REMARK  140  A    between atoms: _322  and  _325
REMARK  141  A    between atoms: _325  and  _326
REMARK  142  A    between atoms: _329  and  _331
REMARK  143  A    between atoms: _331  and  _332
REMARK  144  A    between atoms: _331  and  _334
REMARK  145  A    between atoms: _334  and  _335
REMARK  146  A    between atoms: _337  and  _339
REMARK  147  A    between atoms: _339  and  _340
REMARK  148  A    between atoms: _339  and  _342
REMARK  149  A    between atoms: _342  and  _343
REMARK  150  A    between atoms: _343  and  _344
REMARK  151  A    between atoms: _344  and  _345
REMARK  152  A    between atoms: _345  and  _346
REMARK  153  A    between atoms: _351  and  _352
REMARK  154  A    between atoms: _357  and  _359
REMARK  155  A    between atoms: _359  and  _360
REMARK  156  A    between atoms: _359  and  _362
REMARK  157  A    between atoms: _362  and  _363
REMARK  158  A    between atoms: _366  and  _368
REMARK  159  A    between atoms: _368  and  _369
REMARK  160  A    between atoms: _372  and  _374
REMARK  161  A    between atoms: _374  and  _375
REMARK  162  A    between atoms: _374  and  _377
REMARK  163  A    between atoms: _377  and  _378
REMARK  164  A    between atoms: _383  and  _385
REMARK  165  A    between atoms: _385  and  _386
REMARK  166  A    between atoms: _385  and  _388
REMARK  167  A    between atoms: _391  and  _393
REMARK  168  A    between atoms: _393  and  _394
REMARK  169  A    between atoms: _393  and  _396
REMARK  170  A    between atoms: _396  and  _397
REMARK  171  A    between atoms: _397  and  _398
REMARK  172  A    between atoms: _398  and  _399
REMARK  173  A    between atoms: _408  and  _410
REMARK  174  A    between atoms: _410  and  _411
REMARK  175  A    between atoms: _410  and  _413
REMARK  176  A    between atoms: _413  and  _414
REMARK  177  A    between atoms: _419  and  _421
REMARK  178  A    between atoms: _421  and  _422
REMARK  179  A    between atoms: _421  and  _424
REMARK  180  A    between atoms: _424  and  _425
REMARK  181  A    between atoms: _431  and  _433
REMARK  182  A    between atoms: _433  and  _434
REMARK  183  A    between atoms: _433  and  _436
REMARK  184  A    between atoms: _436  and  _437
REMARK  185  A    between atoms: _439  and  _441
REMARK  186  A    between atoms: _441  and  _442
REMARK  187  A    between atoms: _441  and  _444
REMARK  188  A    between atoms: _444  and  _445
REMARK  189  A    between atoms: _445  and  _446
REMARK  190  A    between atoms: _449  and  _451
REMARK  191  A    between atoms: _451  and  _452
REMARK  192  A    between atoms: _451  and  _454
REMARK  193  A    between atoms: _454  and  _455
REMARK  194  A    between atoms: _458  and  _460
REMARK  195  A    between atoms: _460  and  _461
REMARK  196  A    between atoms: _460  and  _463
REMARK  197  A    between atoms: _463  and  _464
REMARK  198  A    between atoms: _466  and  _468
REMARK  199  A    between atoms: _468  and  _469
REMARK  200  A    between atoms: _468  and  _471
REMARK  201  A    between atoms: _471  and  _472
REMARK  202  A    between atoms: _472  and  _473
REMARK  203  A    between atoms: _476  and  _478
REMARK  204  A    between atoms: _478  and  _479
REMARK  205  A    between atoms: _478  and  _481
REMARK  206  A    between atoms: _481  and  _482
REMARK  207  A    between atoms: _488  and  _490
REMARK  208  A    between atoms: _490  and  _491
REMARK  209  A    between atoms: _490  and  _493
REMARK  210  A    between atoms: _493  and  _494
REMARK  211  A    between atoms: _499  and  _500
REMARK  212  A    between atoms: _502  and  _504
REMARK  213  A    between atoms: _504  and  _505
REMARK  214  A    between atoms: _504  and  _507
REMARK  215  A    between atoms: _507  and  _508
REMARK  216  A    between atoms: _511  and  _513
REMARK  217  A    between atoms: _513  and  _514
REMARK  218  A    between atoms: _513  and  _516
REMARK  219  A    between atoms: _516  and  _517
REMARK  220  A    between atoms: _520  and  _522
REMARK  221  A    between atoms: _522  and  _523
REMARK  222  A    between atoms: _522  and  _525
REMARK  223  A    between atoms: _525  and  _526
REMARK  224  A    between atoms: _531  and  _533
REMARK  225  A    between atoms: _533  and  _534
REMARK  226  A    between atoms: _533  and  _536
REMARK                            x       y       z     vdW  Elec       q    Type
REMARK                         _______ _______ _______ _____ _____    ______ ____
ROOT
ATOM      1  O   HOH     1      17.271  43.117  13.070  0.00  0.00    +0.000 OA
ENDROOT
TORSDOF 0
