REMARK  Name = ../refined-set-2016/4fzj/4fzj_pocket.pdb
REMARK  92 active torsions:
REMARK  status: ('A' for Active; 'I' for Inactive)
REMARK    1  A    between atoms: _1  and  _3
REMARK    2  A    between atoms: _3  and  _4
REMARK    3  A    between atoms: _3  and  _6
REMARK    4  A    between atoms: _6  and  _7
REMARK    5  A    between atoms: _7  and  _8
REMARK    6  A    between atoms: _12  and  _13
REMARK    7  A    between atoms: _18  and  _20
REMARK    8  A    between atoms: _20  and  _21
REMARK    9  A    between atoms: _20  and  _23
REMARK   10  A    between atoms: _23  and  _24
REMARK   11  A    between atoms: _27  and  _29
REMARK   12  A    between atoms: _29  and  _30
REMARK   13  A    between atoms: _29  and  _32
REMARK   14  A    between atoms: _32  and  _33
REMARK   15  A    between atoms: _33  and  _34
REMARK   16  A    between atoms: _34  and  _35
REMARK   17  A    between atoms: _44  and  _46
REMARK   18  A    between atoms: _46  and  _47
REMARK   19  A    between atoms: _46  and  _49
REMARK   20  A    between atoms: _49  and  _50
REMARK   21  A    between atoms: _50  and  _51
REMARK   22  A    between atoms: _54  and  _56
REMARK   23  A    between atoms: _56  and  _57
REMARK   24  A    between atoms: _60  and  _62
REMARK   25  A    between atoms: _62  and  _63
REMARK   26  A    between atoms: _62  and  _65
REMARK   27  A    between atoms: _65  and  _66
REMARK   28  A    between atoms: _69  and  _71
REMARK   29  A    between atoms: _71  and  _72
REMARK   30  A    between atoms: _74  and  _76
REMARK   31  A    between atoms: _76  and  _77
REMARK   32  A    between atoms: _76  and  _79
REMARK   33  A    between atoms: _79  and  _80
REMARK   34  A    between atoms: _83  and  _85
REMARK   35  A    between atoms: _85  and  _86
REMARK   36  A    between atoms: _89  and  _91
REMARK   37  A    between atoms: _91  and  _92
REMARK   38  A    between atoms: _91  and  _94
REMARK   39  A    between atoms: _97  and  _99
REMARK   40  A    between atoms: _99  and  _100
REMARK   41  A    between atoms: _99  and  _102
REMARK   42  A    between atoms: _102  and  _103
REMARK   43  A    between atoms: _106  and  _108
REMARK   44  A    between atoms: _108  and  _109
REMARK   45  A    between atoms: _108  and  _111
REMARK   46  A    between atoms: _111  and  _112
REMARK   47  A    between atoms: _114  and  _116
REMARK   48  A    between atoms: _116  and  _117
REMARK   49  A    between atoms: _120  and  _122
REMARK   50  A    between atoms: _122  and  _123
REMARK   51  A    between atoms: _126  and  _128
REMARK   52  A    between atoms: _128  and  _129
REMARK   53  A    between atoms: _128  and  _131
REMARK   54  A    between atoms: _131  and  _132
REMARK   55  A    between atoms: _135  and  _137
REMARK   56  A    between atoms: _137  and  _138
REMARK   57  A    between atoms: _137  and  _140
REMARK   58  A    between atoms: _140  and  _141
REMARK   59  A    between atoms: _144  and  _146
REMARK   60  A    between atoms: _146  and  _147
REMARK   61  A    between atoms: _150  and  _152
REMARK   62  A    between atoms: _152  and  _153
REMARK   63  A    between atoms: _156  and  _158
REMARK   64  A    between atoms: _158  and  _159
REMARK   65  A    between atoms: _162  and  _164
REMARK   66  A    between atoms: _164  and  _165
REMARK   67  A    between atoms: _164  and  _167
REMARK   68  A    between atoms: _167  and  _168
REMARK   69  A    between atoms: _173  and  _175
REMARK   70  A    between atoms: _175  and  _176
REMARK   71  A    between atoms: _175  and  _178
REMARK   72  A    between atoms: _178  and  _179
REMARK   73  A    between atoms: _179  and  _180
REMARK   74  A    between atoms: _180  and  _181
REMARK   75  A    between atoms: _190  and  _192
REMARK   76  A    between atoms: _192  and  _193
REMARK   77  A    between atoms: _192  and  _195
REMARK   78  A    between atoms: _195  and  _196
REMARK   79  A    between atoms: _199  and  _201
REMARK   80  A    between atoms: _201  and  _202
REMARK   81  A    between atoms: _201  and  _204
REMARK   82  A    between atoms: _204  and  _205
REMARK   83  A    between atoms: _208  and  _210
REMARK   84  A    between atoms: _210  and  _211
REMARK   85  A    between atoms: _210  and  _213
REMARK   86  A    between atoms: _213  and  _214
REMARK   87  A    between atoms: _219  and  _221
REMARK   88  A    between atoms: _221  and  _222
REMARK   89  A    between atoms: _221  and  _224
REMARK   90  A    between atoms: _224  and  _225
REMARK   91  A    between atoms: _228  and  _230
REMARK   92  A    between atoms: _230  and  _231
REMARK                            x       y       z     vdW  Elec       q    Type
REMARK                         _______ _______ _______ _____ _____    ______ ____
ROOT
ATOM      1  CA  GLU A   1      12.752   3.434  -3.333  0.00  0.00    +0.134 C 
ENDROOT
BRANCH   1   2
ATOM      2  N   GLU A   1      11.974   4.605  -2.905  0.00  0.00    -0.239 NA
ATOM      3  H   GLU A   1      11.290   5.034  -3.561  0.00  0.00    +0.142 HD
ENDBRANCH   1   2
BRANCH   1   4
ATOM      4  C   GLU A   1      14.261   3.648  -3.448  0.00  0.00    +0.224 C 
ATOM      5  O   GLU A   1      14.968   2.695  -3.497  0.00  0.00    -0.287 OA
ENDBRANCH   1   4
BRANCH   1   6
ATOM      6  CB  GLU A   1      12.234   2.926  -4.682  0.00  0.00    +0.037 C 
BRANCH   6   7
ATOM      7  CG  GLU A   1      10.849   2.315  -4.539  0.00  0.00    +0.116 C 
BRANCH   7   8
ATOM      8  CD  GLU A   1      10.332   1.707  -5.857  0.00  0.00    +0.365 C 
ATOM      9  OE2 GLU A   1       9.151   1.298  -5.882  0.00  0.00    -0.246 OA
ATOM     10  OE1 GLU A   1      11.095   1.657  -6.844  0.00  0.00    -0.246 OA
ENDBRANCH   7   8
ENDBRANCH   6   7
ENDBRANCH   1   6
TORSDOF 5
REMARK  Name = ../refined-set-2016/4fzj/4fzj_pocket.pdb
REMARK  92 active torsions:
REMARK  status: ('A' for Active; 'I' for Inactive)
REMARK    1  A    between atoms: _1  and  _3
REMARK    2  A    between atoms: _3  and  _4
REMARK    3  A    between atoms: _3  and  _6
REMARK    4  A    between atoms: _6  and  _7
REMARK    5  A    between atoms: _7  and  _8
REMARK    6  A    between atoms: _12  and  _13
REMARK    7  A    between atoms: _18  and  _20
REMARK    8  A    between atoms: _20  and  _21
REMARK    9  A    between atoms: _20  and  _23
REMARK   10  A    between atoms: _23  and  _24
REMARK   11  A    between atoms: _27  and  _29
REMARK   12  A    between atoms: _29  and  _30
REMARK   13  A    between atoms: _29  and  _32
REMARK   14  A    between atoms: _32  and  _33
REMARK   15  A    between atoms: _33  and  _34
REMARK   16  A    between atoms: _34  and  _35
REMARK   17  A    between atoms: _44  and  _46
REMARK   18  A    between atoms: _46  and  _47
REMARK   19  A    between atoms: _46  and  _49
REMARK   20  A    between atoms: _49  and  _50
REMARK   21  A    between atoms: _50  and  _51
REMARK   22  A    between atoms: _54  and  _56
REMARK   23  A    between atoms: _56  and  _57
REMARK   24  A    between atoms: _60  and  _62
REMARK   25  A    between atoms: _62  and  _63
REMARK   26  A    between atoms: _62  and  _65
REMARK   27  A    between atoms: _65  and  _66
REMARK   28  A    between atoms: _69  and  _71
REMARK   29  A    between atoms: _71  and  _72
REMARK   30  A    between atoms: _74  and  _76
REMARK   31  A    between atoms: _76  and  _77
REMARK   32  A    between atoms: _76  and  _79
REMARK   33  A    between atoms: _79  and  _80
REMARK   34  A    between atoms: _83  and  _85
REMARK   35  A    between atoms: _85  and  _86
REMARK   36  A    between atoms: _89  and  _91
REMARK   37  A    between atoms: _91  and  _92
REMARK   38  A    between atoms: _91  and  _94
REMARK   39  A    between atoms: _97  and  _99
REMARK   40  A    between atoms: _99  and  _100
REMARK   41  A    between atoms: _99  and  _102
REMARK   42  A    between atoms: _102  and  _103
REMARK   43  A    between atoms: _106  and  _108
REMARK   44  A    between atoms: _108  and  _109
REMARK   45  A    between atoms: _108  and  _111
REMARK   46  A    between atoms: _111  and  _112
REMARK   47  A    between atoms: _114  and  _116
REMARK   48  A    between atoms: _116  and  _117
REMARK   49  A    between atoms: _120  and  _122
REMARK   50  A    between atoms: _122  and  _123
REMARK   51  A    between atoms: _126  and  _128
REMARK   52  A    between atoms: _128  and  _129
REMARK   53  A    between atoms: _128  and  _131
REMARK   54  A    between atoms: _131  and  _132
REMARK   55  A    between atoms: _135  and  _137
REMARK   56  A    between atoms: _137  and  _138
REMARK   57  A    between atoms: _137  and  _140
REMARK   58  A    between atoms: _140  and  _141
REMARK   59  A    between atoms: _144  and  _146
REMARK   60  A    between atoms: _146  and  _147
REMARK   61  A    between atoms: _150  and  _152
REMARK   62  A    between atoms: _152  and  _153
REMARK   63  A    between atoms: _156  and  _158
REMARK   64  A    between atoms: _158  and  _159
REMARK   65  A    between atoms: _162  and  _164
REMARK   66  A    between atoms: _164  and  _165
REMARK   67  A    between atoms: _164  and  _167
REMARK   68  A    between atoms: _167  and  _168
REMARK   69  A    between atoms: _173  and  _175
REMARK   70  A    between atoms: _175  and  _176
REMARK   71  A    between atoms: _175  and  _178
REMARK   72  A    between atoms: _178  and  _179
REMARK   73  A    between atoms: _179  and  _180
REMARK   74  A    between atoms: _180  and  _181
REMARK   75  A    between atoms: _190  and  _192
REMARK   76  A    between atoms: _192  and  _193
REMARK   77  A    between atoms: _192  and  _195
REMARK   78  A    between atoms: _195  and  _196
REMARK   79  A    between atoms: _199  and  _201
REMARK   80  A    between atoms: _201  and  _202
REMARK   81  A    between atoms: _201  and  _204
REMARK   82  A    between atoms: _204  and  _205
REMARK   83  A    between atoms: _208  and  _210
REMARK   84  A    between atoms: _210  and  _211
REMARK   85  A    between atoms: _210  and  _213
REMARK   86  A    between atoms: _213  and  _214
REMARK   87  A    between atoms: _219  and  _221
REMARK   88  A    between atoms: _221  and  _222
REMARK   89  A    between atoms: _221  and  _224
REMARK   90  A    between atoms: _224  and  _225
REMARK   91  A    between atoms: _228  and  _230
REMARK   92  A    between atoms: _230  and  _231
REMARK                            x       y       z     vdW  Elec       q    Type
REMARK                         _______ _______ _______ _____ _____    ______ ____
ROOT
ATOM      1  C   PRO A   1      10.933   6.410  -7.364  0.00  0.00    +0.239 C 
ATOM      2  O   PRO A   1      10.541   7.599  -7.230  0.00  0.00    -0.274 OA
ATOM      3  N   THR A   2      12.180   6.036  -7.551  0.00  0.00    -0.296 N 
ATOM      4  H   THR A   2      12.380   5.025  -7.687  0.00  0.00    +0.150 HD
ENDROOT
BRANCH   1   9
ATOM      5  N   PRO A   1       8.771   5.541  -6.475  0.00  0.00    -0.210 NA
ATOM      6  CD  PRO A   1       7.477   5.331  -7.167  0.00  0.00    +0.089 C 
ATOM      7  CG  PRO A   1       7.896   4.470  -8.321  0.00  0.00    +0.021 C 
ATOM      8  CB  PRO A   1       9.342   5.040  -8.699  0.00  0.00    +0.028 C 
ATOM      9  CA  PRO A   1       9.953   5.262  -7.313  0.00  0.00    +0.149 C 
ENDBRANCH   1   9
BRANCH   3  10
ATOM     10  CA  THR A   2      13.300   6.981  -7.576  0.00  0.00    +0.164 C 
BRANCH  10  11
ATOM     11  CB  THR A   2      14.601   6.219  -7.774  0.00  0.00    +0.136 C 
ATOM     12  CG2 THR A   2      15.748   7.155  -7.894  0.00  0.00    +0.034 C 
BRANCH  11  13
ATOM     13  OG1 THR A   2      14.767   5.293  -6.651  0.00  0.00    -0.382 OA
ATOM     14  HG1 THR A   2      15.611   4.787  -6.764  0.00  0.00    +0.210 HD
ENDBRANCH  11  13
ENDBRANCH  10  11
BRANCH  10  15
ATOM     15  C   THR A   2      13.148   8.053  -8.667  0.00  0.00    +0.229 C 
ATOM     16  O   THR A   2      12.810   7.722  -9.837  0.00  0.00    -0.286 OA
ENDBRANCH  10  15
ENDBRANCH   3  10
TORSDOF 5
REMARK  Name = ../refined-set-2016/4fzj/4fzj_pocket.pdb
REMARK  92 active torsions:
REMARK  status: ('A' for Active; 'I' for Inactive)
REMARK    1  A    between atoms: _1  and  _3
REMARK    2  A    between atoms: _3  and  _4
REMARK    3  A    between atoms: _3  and  _6
REMARK    4  A    between atoms: _6  and  _7
REMARK    5  A    between atoms: _7  and  _8
REMARK    6  A    between atoms: _12  and  _13
REMARK    7  A    between atoms: _18  and  _20
REMARK    8  A    between atoms: _20  and  _21
REMARK    9  A    between atoms: _20  and  _23
REMARK   10  A    between atoms: _23  and  _24
REMARK   11  A    between atoms: _27  and  _29
REMARK   12  A    between atoms: _29  and  _30
REMARK   13  A    between atoms: _29  and  _32
REMARK   14  A    between atoms: _32  and  _33
REMARK   15  A    between atoms: _33  and  _34
REMARK   16  A    between atoms: _34  and  _35
REMARK   17  A    between atoms: _44  and  _46
REMARK   18  A    between atoms: _46  and  _47
REMARK   19  A    between atoms: _46  and  _49
REMARK   20  A    between atoms: _49  and  _50
REMARK   21  A    between atoms: _50  and  _51
REMARK   22  A    between atoms: _54  and  _56
REMARK   23  A    between atoms: _56  and  _57
REMARK   24  A    between atoms: _60  and  _62
REMARK   25  A    between atoms: _62  and  _63
REMARK   26  A    between atoms: _62  and  _65
REMARK   27  A    between atoms: _65  and  _66
REMARK   28  A    between atoms: _69  and  _71
REMARK   29  A    between atoms: _71  and  _72
REMARK   30  A    between atoms: _74  and  _76
REMARK   31  A    between atoms: _76  and  _77
REMARK   32  A    between atoms: _76  and  _79
REMARK   33  A    between atoms: _79  and  _80
REMARK   34  A    between atoms: _83  and  _85
REMARK   35  A    between atoms: _85  and  _86
REMARK   36  A    between atoms: _89  and  _91
REMARK   37  A    between atoms: _91  and  _92
REMARK   38  A    between atoms: _91  and  _94
REMARK   39  A    between atoms: _97  and  _99
REMARK   40  A    between atoms: _99  and  _100
REMARK   41  A    between atoms: _99  and  _102
REMARK   42  A    between atoms: _102  and  _103
REMARK   43  A    between atoms: _106  and  _108
REMARK   44  A    between atoms: _108  and  _109
REMARK   45  A    between atoms: _108  and  _111
REMARK   46  A    between atoms: _111  and  _112
REMARK   47  A    between atoms: _114  and  _116
REMARK   48  A    between atoms: _116  and  _117
REMARK   49  A    between atoms: _120  and  _122
REMARK   50  A    between atoms: _122  and  _123
REMARK   51  A    between atoms: _126  and  _128
REMARK   52  A    between atoms: _128  and  _129
REMARK   53  A    between atoms: _128  and  _131
REMARK   54  A    between atoms: _131  and  _132
REMARK   55  A    between atoms: _135  and  _137
REMARK   56  A    between atoms: _137  and  _138
REMARK   57  A    between atoms: _137  and  _140
REMARK   58  A    between atoms: _140  and  _141
REMARK   59  A    between atoms: _144  and  _146
REMARK   60  A    between atoms: _146  and  _147
REMARK   61  A    between atoms: _150  and  _152
REMARK   62  A    between atoms: _152  and  _153
REMARK   63  A    between atoms: _156  and  _158
REMARK   64  A    between atoms: _158  and  _159
REMARK   65  A    between atoms: _162  and  _164
REMARK   66  A    between atoms: _164  and  _165
REMARK   67  A    between atoms: _164  and  _167
REMARK   68  A    between atoms: _167  and  _168
REMARK   69  A    between atoms: _173  and  _175
REMARK   70  A    between atoms: _175  and  _176
REMARK   71  A    between atoms: _175  and  _178
REMARK   72  A    between atoms: _178  and  _179
REMARK   73  A    between atoms: _179  and  _180
REMARK   74  A    between atoms: _180  and  _181
REMARK   75  A    between atoms: _190  and  _192
REMARK   76  A    between atoms: _192  and  _193
REMARK   77  A    between atoms: _192  and  _195
REMARK   78  A    between atoms: _195  and  _196
REMARK   79  A    between atoms: _199  and  _201
REMARK   80  A    between atoms: _201  and  _202
REMARK   81  A    between atoms: _201  and  _204
REMARK   82  A    between atoms: _204  and  _205
REMARK   83  A    between atoms: _208  and  _210
REMARK   84  A    between atoms: _210  and  _211
REMARK   85  A    between atoms: _210  and  _213
REMARK   86  A    between atoms: _213  and  _214
REMARK   87  A    between atoms: _219  and  _221
REMARK   88  A    between atoms: _221  and  _222
REMARK   89  A    between atoms: _221  and  _224
REMARK   90  A    between atoms: _224  and  _225
REMARK   91  A    between atoms: _228  and  _230
REMARK   92  A    between atoms: _230  and  _231
REMARK                            x       y       z     vdW  Elec       q    Type
REMARK                         _______ _______ _______ _____ _____    ______ ____
ROOT
ATOM      1  CA  ALA A   3      17.841  13.705 -17.172  0.00  0.00    +0.149 C 
ATOM      2  CB  ALA A   3      17.977  15.009 -18.126  0.00  0.00    +0.031 C 
ENDROOT
BRANCH   1   3
ATOM      3  C   ALA A   3      18.775  12.582 -17.665  0.00  0.00    +0.241 C 
ATOM      4  N   ASP A   4      20.025  12.503 -17.165  0.00  0.00    -0.297 N 
ATOM      5  H   ASP A   4      20.349  13.216 -16.480  0.00  0.00    +0.150 HD
ATOM      6  O   ALA A   3      18.331  11.764 -18.468  0.00  0.00    -0.273 OA
BRANCH   4   7
ATOM      7  CA  ASP A   4      20.933  11.428 -17.572  0.00  0.00    +0.160 C 
BRANCH   7   8
ATOM      8  C   ASP A   4      20.738  10.115 -16.803  0.00  0.00    +0.241 C 
ATOM      9  N   GLY A   5      19.805  10.098 -15.840  0.00  0.00    -0.295 N 
ATOM     10  H   GLY A   5      19.226  10.945 -15.670  0.00  0.00    +0.150 HD
ATOM     11  O   ASP A   4      21.408   9.129 -17.091  0.00  0.00    -0.273 OA
BRANCH   9  12
ATOM     12  CA  GLY A   5      19.593   8.905 -15.029  0.00  0.00    +0.176 C 
BRANCH  12  13
ATOM     13  C   GLY A   5      20.085   8.980 -13.577  0.00  0.00    +0.243 C 
ATOM     14  O   GLY A   5      19.685   8.103 -12.755  0.00  0.00    -0.273 OA
ATOM     15  N   LEU A   6      20.964   9.945 -13.208  0.00  0.00    -0.297 N 
ATOM     16  H   LEU A   6      21.257  10.676 -13.887  0.00  0.00    +0.150 HD
BRANCH  15  17
ATOM     17  CA  LEU A   6      21.498   9.946 -11.839  0.00  0.00    +0.149 C 
BRANCH  17  18
ATOM     18  C   LEU A   6      20.315  10.052 -10.828  0.00  0.00    +0.241 C 
ATOM     19  N   ALA A   7      20.263   9.166  -9.835  0.00  0.00    -0.298 N 
ATOM     20  H   ALA A   7      20.981   8.415  -9.797  0.00  0.00    +0.150 HD
ATOM     21  O   LEU A   6      19.542  10.945 -10.944  0.00  0.00    -0.273 OA
BRANCH  19  22
ATOM     22  CA  ALA A   7      19.204   9.211  -8.766  0.00  0.00    +0.137 C 
ATOM     23  CB  ALA A   7      19.409   8.094  -7.805  0.00  0.00    +0.030 C 
BRANCH  22  24
ATOM     24  C   ALA A   7      19.344  10.526  -8.019  0.00  0.00    +0.227 C 
ATOM     25  O   ALA A   7      20.455  10.897  -7.673  0.00  0.00    -0.286 OA
ENDBRANCH  22  24
ENDBRANCH  19  22
ENDBRANCH  17  18
BRANCH  17  26
ATOM     26  CB  LEU A   6      22.321  11.238 -11.634  0.00  0.00    +0.029 C 
BRANCH  26  27
ATOM     27  CG  LEU A   6      23.091  11.273 -10.279  0.00  0.00    +0.002 C 
ATOM     28  CD2 LEU A   6      23.967  10.092  -9.898  0.00  0.00    +0.000 C 
ATOM     29  CD1 LEU A   6      23.921  12.588 -10.277  0.00  0.00    +0.000 C 
ENDBRANCH  26  27
ENDBRANCH  17  26
ENDBRANCH  15  17
ENDBRANCH  12  13
ENDBRANCH   9  12
ENDBRANCH   7   8
BRANCH   7  30
ATOM     30  CB  ASP A   4      22.414  11.845 -17.512  0.00  0.00    +0.143 C 
BRANCH  30  31
ATOM     31  CG  ASP A   4      22.901  12.145 -16.097  0.00  0.00    +0.367 C 
ATOM     32  OD2 ASP A   4      22.027  12.189 -15.189  0.00  0.00    -0.246 OA
ATOM     33  OD1 ASP A   4      24.153  12.287 -15.898  0.00  0.00    -0.246 OA
ENDBRANCH  30  31
ENDBRANCH   7  30
ENDBRANCH   4   7
ENDBRANCH   1   3
BRANCH   1  36
ATOM     34  C   GLU A   2      17.920  13.153 -14.800  0.00  0.00    +0.241 C 
ATOM     35  O   GLU A   2      17.761  11.968 -15.062  0.00  0.00    -0.273 OA
ATOM     36  N   ALA A   3      18.002  14.080 -15.764  0.00  0.00    -0.297 N 
ATOM     37  H   ALA A   3      18.181  15.073 -15.511  0.00  0.00    +0.150 HD
BRANCH  34  38
ATOM     38  CA  GLU A   2      18.117  13.633 -13.362  0.00  0.00    +0.149 C 
BRANCH  38  40
ATOM     39  C   ARG A   1      16.451  12.134 -12.463  0.00  0.00    +0.238 C 
ATOM     40  N   GLU A   2      17.706  12.556 -12.464  0.00  0.00    -0.297 N 
ATOM     41  H   GLU A   2      18.401  12.120 -11.824  0.00  0.00    +0.150 HD
ATOM     42  O   ARG A   1      15.542  12.757 -12.958  0.00  0.00    -0.274 OA
BRANCH  39  43
ATOM     43  CA  ARG A   1      16.179  10.851 -11.679  0.00  0.00    +0.145 C 
BRANCH  43  44
ATOM     44  N   ARG A   1      14.813  10.839 -11.071  0.00  0.00    -0.238 NA
ATOM     45  H   ARG A   1      13.968  10.951 -11.667  0.00  0.00    +0.142 HD
ENDBRANCH  43  44
BRANCH  43  46
ATOM     46  CB  ARG A   1      16.415   9.661 -12.587  0.00  0.00    +0.030 C 
BRANCH  46  47
ATOM     47  CG  ARG A   1      16.217   8.331 -11.837  0.00  0.00    +0.045 C 
BRANCH  47  48
ATOM     48  CD  ARG A   1      16.452   7.163 -12.748  0.00  0.00    +0.174 C 
BRANCH  48  49
ATOM     49  NE  ARG A   1      16.316   5.956 -11.880  0.00  0.00    -0.265 N 
ATOM     50  CZ  ARG A   1      17.312   5.405 -11.191  0.00  0.00    +0.342 C 
ATOM     51  NH2 ARG A   1      17.087   4.329 -10.363  0.00  0.00    -0.292 N 
ATOM     52 HH21 ARG A   1      17.875   3.909  -9.831  0.00  0.00    +0.255 HD
ATOM     53 HH22 ARG A   1      16.129   3.936 -10.270  0.00  0.00    +0.255 HD
ATOM     54  NH1 ARG A   1      18.563   5.879 -11.315  0.00  0.00    -0.292 N 
ATOM     55 HH11 ARG A   1      19.339   5.446 -10.775  0.00  0.00    +0.255 HD
ATOM     56 HH12 ARG A   1      18.755   6.679 -11.951  0.00  0.00    +0.255 HD
ATOM     57  HE  ARG A   1      15.377   5.515 -11.809  0.00  0.00    +0.259 HD
ENDBRANCH  48  49
ENDBRANCH  47  48
ENDBRANCH  46  47
ENDBRANCH  43  46
ENDBRANCH  39  43
ENDBRANCH  38  40
BRANCH  38  58
ATOM     58  CB  GLU A   2      19.595  13.982 -13.102  0.00  0.00    +0.041 C 
BRANCH  58  59
ATOM     59  CG  GLU A   2      19.926  14.599 -11.732  0.00  0.00    +0.116 C 
BRANCH  59  60
ATOM     60  CD  GLU A   2      19.279  15.977 -11.473  0.00  0.00    +0.365 C 
ATOM     61  OE2 GLU A   2      19.342  16.432 -10.303  0.00  0.00    -0.246 OA
ATOM     62  OE1 GLU A   2      18.656  16.577 -12.400  0.00  0.00    -0.246 OA
ENDBRANCH  59  60
ENDBRANCH  58  59
ENDBRANCH  38  58
ENDBRANCH  34  38
ENDBRANCH   1  36
TORSDOF 25
REMARK  Name = ../refined-set-2016/4fzj/4fzj_pocket.pdb
REMARK  92 active torsions:
REMARK  status: ('A' for Active; 'I' for Inactive)
REMARK    1  A    between atoms: _1  and  _3
REMARK    2  A    between atoms: _3  and  _4
REMARK    3  A    between atoms: _3  and  _6
REMARK    4  A    between atoms: _6  and  _7
REMARK    5  A    between atoms: _7  and  _8
REMARK    6  A    between atoms: _12  and  _13
REMARK    7  A    between atoms: _18  and  _20
REMARK    8  A    between atoms: _20  and  _21
REMARK    9  A    between atoms: _20  and  _23
REMARK   10  A    between atoms: _23  and  _24
REMARK   11  A    between atoms: _27  and  _29
REMARK   12  A    between atoms: _29  and  _30
REMARK   13  A    between atoms: _29  and  _32
REMARK   14  A    between atoms: _32  and  _33
REMARK   15  A    between atoms: _33  and  _34
REMARK   16  A    between atoms: _34  and  _35
REMARK   17  A    between atoms: _44  and  _46
REMARK   18  A    between atoms: _46  and  _47
REMARK   19  A    between atoms: _46  and  _49
REMARK   20  A    between atoms: _49  and  _50
REMARK   21  A    between atoms: _50  and  _51
REMARK   22  A    between atoms: _54  and  _56
REMARK   23  A    between atoms: _56  and  _57
REMARK   24  A    between atoms: _60  and  _62
REMARK   25  A    between atoms: _62  and  _63
REMARK   26  A    between atoms: _62  and  _65
REMARK   27  A    between atoms: _65  and  _66
REMARK   28  A    between atoms: _69  and  _71
REMARK   29  A    between atoms: _71  and  _72
REMARK   30  A    between atoms: _74  and  _76
REMARK   31  A    between atoms: _76  and  _77
REMARK   32  A    between atoms: _76  and  _79
REMARK   33  A    between atoms: _79  and  _80
REMARK   34  A    between atoms: _83  and  _85
REMARK   35  A    between atoms: _85  and  _86
REMARK   36  A    between atoms: _89  and  _91
REMARK   37  A    between atoms: _91  and  _92
REMARK   38  A    between atoms: _91  and  _94
REMARK   39  A    between atoms: _97  and  _99
REMARK   40  A    between atoms: _99  and  _100
REMARK   41  A    between atoms: _99  and  _102
REMARK   42  A    between atoms: _102  and  _103
REMARK   43  A    between atoms: _106  and  _108
REMARK   44  A    between atoms: _108  and  _109
REMARK   45  A    between atoms: _108  and  _111
REMARK   46  A    between atoms: _111  and  _112
REMARK   47  A    between atoms: _114  and  _116
REMARK   48  A    between atoms: _116  and  _117
REMARK   49  A    between atoms: _120  and  _122
REMARK   50  A    between atoms: _122  and  _123
REMARK   51  A    between atoms: _126  and  _128
REMARK   52  A    between atoms: _128  and  _129
REMARK   53  A    between atoms: _128  and  _131
REMARK   54  A    between atoms: _131  and  _132
REMARK   55  A    between atoms: _135  and  _137
REMARK   56  A    between atoms: _137  and  _138
REMARK   57  A    between atoms: _137  and  _140
REMARK   58  A    between atoms: _140  and  _141
REMARK   59  A    between atoms: _144  and  _146
REMARK   60  A    between atoms: _146  and  _147
REMARK   61  A    between atoms: _150  and  _152
REMARK   62  A    between atoms: _152  and  _153
REMARK   63  A    between atoms: _156  and  _158
REMARK   64  A    between atoms: _158  and  _159
REMARK   65  A    between atoms: _162  and  _164
REMARK   66  A    between atoms: _164  and  _165
REMARK   67  A    between atoms: _164  and  _167
REMARK   68  A    between atoms: _167  and  _168
REMARK   69  A    between atoms: _173  and  _175
REMARK   70  A    between atoms: _175  and  _176
REMARK   71  A    between atoms: _175  and  _178
REMARK   72  A    between atoms: _178  and  _179
REMARK   73  A    between atoms: _179  and  _180
REMARK   74  A    between atoms: _180  and  _181
REMARK   75  A    between atoms: _190  and  _192
REMARK   76  A    between atoms: _192  and  _193
REMARK   77  A    between atoms: _192  and  _195
REMARK   78  A    between atoms: _195  and  _196
REMARK   79  A    between atoms: _199  and  _201
REMARK   80  A    between atoms: _201  and  _202
REMARK   81  A    between atoms: _201  and  _204
REMARK   82  A    between atoms: _204  and  _205
REMARK   83  A    between atoms: _208  and  _210
REMARK   84  A    between atoms: _210  and  _211
REMARK   85  A    between atoms: _210  and  _213
REMARK   86  A    between atoms: _213  and  _214
REMARK   87  A    between atoms: _219  and  _221
REMARK   88  A    between atoms: _221  and  _222
REMARK   89  A    between atoms: _221  and  _224
REMARK   90  A    between atoms: _224  and  _225
REMARK   91  A    between atoms: _228  and  _230
REMARK   92  A    between atoms: _230  and  _231
REMARK                            x       y       z     vdW  Elec       q    Type
REMARK                         _______ _______ _______ _____ _____    ______ ____
ROOT
ATOM      1  CA  VAL A   1      25.954   8.468 -14.485  0.00  0.00    +0.133 C 
ENDROOT
BRANCH   1   2
ATOM      2  CB  VAL A   1      25.936   9.123 -15.908  0.00  0.00    +0.023 C 
ATOM      3  CG2 VAL A   1      24.666   8.787 -16.667  0.00  0.00    +0.002 C 
ATOM      4  CG1 VAL A   1      27.173   8.776 -16.686  0.00  0.00    +0.002 C 
ENDBRANCH   1   2
BRANCH   1   5
ATOM      5  N   VAL A   1      26.982   9.065 -13.593  0.00  0.00    -0.239 NA
ATOM      6  H   VAL A   1      27.601   9.814 -13.964  0.00  0.00    +0.142 HD
ENDBRANCH   1   5
BRANCH   1   7
ATOM      7  C   VAL A   1      26.206   6.967 -14.598  0.00  0.00    +0.224 C 
ATOM      8  O   VAL A   1      25.241   6.225 -14.835  0.00  0.00    -0.287 OA
ENDBRANCH   1   7
TORSDOF 3
REMARK  Name = ../refined-set-2016/4fzj/4fzj_pocket.pdb
REMARK  92 active torsions:
REMARK  status: ('A' for Active; 'I' for Inactive)
REMARK    1  A    between atoms: _1  and  _3
REMARK    2  A    between atoms: _3  and  _4
REMARK    3  A    between atoms: _3  and  _6
REMARK    4  A    between atoms: _6  and  _7
REMARK    5  A    between atoms: _7  and  _8
REMARK    6  A    between atoms: _12  and  _13
REMARK    7  A    between atoms: _18  and  _20
REMARK    8  A    between atoms: _20  and  _21
REMARK    9  A    between atoms: _20  and  _23
REMARK   10  A    between atoms: _23  and  _24
REMARK   11  A    between atoms: _27  and  _29
REMARK   12  A    between atoms: _29  and  _30
REMARK   13  A    between atoms: _29  and  _32
REMARK   14  A    between atoms: _32  and  _33
REMARK   15  A    between atoms: _33  and  _34
REMARK   16  A    between atoms: _34  and  _35
REMARK   17  A    between atoms: _44  and  _46
REMARK   18  A    between atoms: _46  and  _47
REMARK   19  A    between atoms: _46  and  _49
REMARK   20  A    between atoms: _49  and  _50
REMARK   21  A    between atoms: _50  and  _51
REMARK   22  A    between atoms: _54  and  _56
REMARK   23  A    between atoms: _56  and  _57
REMARK   24  A    between atoms: _60  and  _62
REMARK   25  A    between atoms: _62  and  _63
REMARK   26  A    between atoms: _62  and  _65
REMARK   27  A    between atoms: _65  and  _66
REMARK   28  A    between atoms: _69  and  _71
REMARK   29  A    between atoms: _71  and  _72
REMARK   30  A    between atoms: _74  and  _76
REMARK   31  A    between atoms: _76  and  _77
REMARK   32  A    between atoms: _76  and  _79
REMARK   33  A    between atoms: _79  and  _80
REMARK   34  A    between atoms: _83  and  _85
REMARK   35  A    between atoms: _85  and  _86
REMARK   36  A    between atoms: _89  and  _91
REMARK   37  A    between atoms: _91  and  _92
REMARK   38  A    between atoms: _91  and  _94
REMARK   39  A    between atoms: _97  and  _99
REMARK   40  A    between atoms: _99  and  _100
REMARK   41  A    between atoms: _99  and  _102
REMARK   42  A    between atoms: _102  and  _103
REMARK   43  A    between atoms: _106  and  _108
REMARK   44  A    between atoms: _108  and  _109
REMARK   45  A    between atoms: _108  and  _111
REMARK   46  A    between atoms: _111  and  _112
REMARK   47  A    between atoms: _114  and  _116
REMARK   48  A    between atoms: _116  and  _117
REMARK   49  A    between atoms: _120  and  _122
REMARK   50  A    between atoms: _122  and  _123
REMARK   51  A    between atoms: _126  and  _128
REMARK   52  A    between atoms: _128  and  _129
REMARK   53  A    between atoms: _128  and  _131
REMARK   54  A    between atoms: _131  and  _132
REMARK   55  A    between atoms: _135  and  _137
REMARK   56  A    between atoms: _137  and  _138
REMARK   57  A    between atoms: _137  and  _140
REMARK   58  A    between atoms: _140  and  _141
REMARK   59  A    between atoms: _144  and  _146
REMARK   60  A    between atoms: _146  and  _147
REMARK   61  A    between atoms: _150  and  _152
REMARK   62  A    between atoms: _152  and  _153
REMARK   63  A    between atoms: _156  and  _158
REMARK   64  A    between atoms: _158  and  _159
REMARK   65  A    between atoms: _162  and  _164
REMARK   66  A    between atoms: _164  and  _165
REMARK   67  A    between atoms: _164  and  _167
REMARK   68  A    between atoms: _167  and  _168
REMARK   69  A    between atoms: _173  and  _175
REMARK   70  A    between atoms: _175  and  _176
REMARK   71  A    between atoms: _175  and  _178
REMARK   72  A    between atoms: _178  and  _179
REMARK   73  A    between atoms: _179  and  _180
REMARK   74  A    between atoms: _180  and  _181
REMARK   75  A    between atoms: _190  and  _192
REMARK   76  A    between atoms: _192  and  _193
REMARK   77  A    between atoms: _192  and  _195
REMARK   78  A    between atoms: _195  and  _196
REMARK   79  A    between atoms: _199  and  _201
REMARK   80  A    between atoms: _201  and  _202
REMARK   81  A    between atoms: _201  and  _204
REMARK   82  A    between atoms: _204  and  _205
REMARK   83  A    between atoms: _208  and  _210
REMARK   84  A    between atoms: _210  and  _211
REMARK   85  A    between atoms: _210  and  _213
REMARK   86  A    between atoms: _213  and  _214
REMARK   87  A    between atoms: _219  and  _221
REMARK   88  A    between atoms: _221  and  _222
REMARK   89  A    between atoms: _221  and  _224
REMARK   90  A    between atoms: _224  and  _225
REMARK   91  A    between atoms: _228  and  _230
REMARK   92  A    between atoms: _230  and  _231
REMARK                            x       y       z     vdW  Elec       q    Type
REMARK                         _______ _______ _______ _____ _____    ______ ____
ROOT
ATOM      1  C   LEU A   5      20.755  -0.957 -14.594  0.00  0.00    +0.241 C 
ATOM      2  O   LEU A   5      20.133  -2.031 -14.713  0.00  0.00    -0.273 OA
ATOM      3  N   THR A   6      20.560   0.061 -15.450  0.00  0.00    -0.295 N 
ATOM      4  H   THR A   6      21.060   0.965 -15.332  0.00  0.00    +0.150 HD
ENDROOT
BRANCH   3   5
ATOM      5  CA  THR A   6      19.620  -0.144 -16.555  0.00  0.00    +0.176 C 
BRANCH   5   6
ATOM      6  C   THR A   6      20.201  -1.126 -17.575  0.00  0.00    +0.243 C 
ATOM      7  N   ALA A   7      21.506  -1.079 -17.790  0.00  0.00    -0.297 N 
ATOM      8  H   ALA A   7      22.087  -0.336 -17.353  0.00  0.00    +0.150 HD
ATOM      9  O   THR A   6      19.451  -1.933 -18.138  0.00  0.00    -0.273 OA
BRANCH   7  10
ATOM     10  CA  ALA A   7      22.132  -2.114 -18.673  0.00  0.00    +0.149 C 
ATOM     11  CB  ALA A   7      23.656  -1.918 -18.819  0.00  0.00    +0.031 C 
BRANCH  10  12
ATOM     12  C   ALA A   7      21.852  -3.528 -18.128  0.00  0.00    +0.241 C 
ATOM     13  N   ALA A   8      22.011  -3.690 -16.815  0.00  0.00    -0.297 N 
ATOM     14  H   ALA A   8      22.302  -2.895 -16.211  0.00  0.00    +0.150 HD
ATOM     15  O   ALA A   7      21.362  -4.436 -18.881  0.00  0.00    -0.273 OA
BRANCH  13  16
ATOM     16  CA  ALA A   8      21.763  -5.027 -16.241  0.00  0.00    +0.149 C 
ATOM     17  CB  ALA A   8      22.061  -4.985 -14.729  0.00  0.00    +0.031 C 
BRANCH  16  18
ATOM     18  C   ALA A   8      20.306  -5.388 -16.385  0.00  0.00    +0.241 C 
ATOM     19  N   ALA A   9      19.393  -4.443 -16.189  0.00  0.00    -0.297 N 
ATOM     20  H   ALA A   9      19.678  -3.458 -16.014  0.00  0.00    +0.150 HD
ATOM     21  O   ALA A   8      20.000  -6.558 -16.587  0.00  0.00    -0.273 OA
BRANCH  19  22
ATOM     22  CA  ALA A   9      17.967  -4.817 -16.225  0.00  0.00    +0.149 C 
ATOM     23  CB  ALA A   9      17.047  -3.613 -15.816  0.00  0.00    +0.031 C 
BRANCH  22  24
ATOM     24  C   ALA A   9      17.575  -5.341 -17.606  0.00  0.00    +0.241 C 
ATOM     25  O   ALA A   9      16.703  -6.204 -17.726  0.00  0.00    -0.273 OA
ATOM     26  N   HIS A  10      18.226  -4.760 -18.640  0.00  0.00    -0.298 N 
ATOM     27  H   HIS A  10      18.902  -3.989 -18.466  0.00  0.00    +0.150 HD
BRANCH  26  28
ATOM     28  CA  HIS A  10      17.971  -5.227 -20.014  0.00  0.00    +0.143 C 
BRANCH  28  29
ATOM     29  C   HIS A  10      18.720  -6.491 -20.347  0.00  0.00    +0.227 C 
ATOM     30  O   HIS A  10      18.178  -7.363 -21.082  0.00  0.00    -0.286 OA
ENDBRANCH  28  29
BRANCH  28  31
ATOM     31  CB  HIS A  10      18.216  -4.058 -20.962  0.00  0.00    +0.075 C 
BRANCH  31  32
ATOM     32  CG  HIS A  10      17.131  -3.049 -20.826  0.00  0.00    +0.082 A 
ATOM     33  CD2 HIS A  10      17.016  -1.959 -20.024  0.00  0.00    +0.115 A 
ATOM     34  NE2 HIS A  10      15.775  -1.408 -20.274  0.00  0.00    -0.221 NA
ATOM     35  CE1 HIS A  10      15.154  -2.136 -21.181  0.00  0.00    +0.199 A 
ATOM     36  ND1 HIS A  10      15.923  -3.168 -21.484  0.00  0.00    -0.227 NA
ENDBRANCH  31  32
ENDBRANCH  28  31
ENDBRANCH  26  28
ENDBRANCH  22  24
ENDBRANCH  19  22
ENDBRANCH  16  18
ENDBRANCH  13  16
ENDBRANCH  10  12
ENDBRANCH   7  10
ENDBRANCH   5   6
BRANCH   5  37
ATOM     37  CB  THR A   6      19.249   1.134 -17.306  0.00  0.00    +0.137 C 
ATOM     38  CG2 THR A   6      18.427   2.039 -16.385  0.00  0.00    +0.034 C 
BRANCH  37  39
ATOM     39  OG1 THR A   6      20.459   1.755 -17.770  0.00  0.00    -0.382 OA
ATOM     40  HG1 THR A   6      21.035   1.972 -16.995  0.00  0.00    +0.210 HD
ENDBRANCH  37  39
ENDBRANCH   5  37
ENDBRANCH   3   5
BRANCH   1  41
ATOM     41  CA  LEU A   5      21.761  -0.781 -13.461  0.00  0.00    +0.149 C 
BRANCH  41  43
ATOM     42  C   ALA A   4      23.797  -0.697 -14.760  0.00  0.00    +0.241 C 
ATOM     43  N   LEU A   5      22.973  -0.092 -13.907  0.00  0.00    -0.297 N 
ATOM     44  H   LEU A   5      23.189   0.864 -13.560  0.00  0.00    +0.150 HD
ATOM     45  O   ALA A   4      23.602  -1.857 -15.175  0.00  0.00    -0.273 OA
BRANCH  42  46
ATOM     46  CA  ALA A   4      25.131   0.035 -15.080  0.00  0.00    +0.149 C 
ATOM     47  CB  ALA A   4      26.036  -0.040 -13.862  0.00  0.00    +0.031 C 
BRANCH  46  49
ATOM     48  C   ALA A   3      24.005   1.763 -16.433  0.00  0.00    +0.241 C 
ATOM     49  N   ALA A   4      24.841   1.458 -15.420  0.00  0.00    -0.297 N 
ATOM     50  H   ALA A   4      25.287   2.221 -14.872  0.00  0.00    +0.150 HD
ATOM     51  O   ALA A   3      23.523   0.915 -17.244  0.00  0.00    -0.273 OA
BRANCH  48  52
ATOM     52  CA  ALA A   3      23.754   3.261 -16.671  0.00  0.00    +0.149 C 
ATOM     53  CB  ALA A   3      25.019   3.853 -17.259  0.00  0.00    +0.031 C 
BRANCH  52  56
ATOM     54  C   SER A   2      22.433   3.544 -14.636  0.00  0.00    +0.243 C 
ATOM     55  O   SER A   2      21.657   2.643 -14.957  0.00  0.00    -0.273 OA
ATOM     56  N   ALA A   3      23.473   3.908 -15.384  0.00  0.00    -0.297 N 
ATOM     57  H   ALA A   3      24.100   4.667 -15.049  0.00  0.00    +0.150 HD
BRANCH  54  58
ATOM     58  CA  SER A   2      22.232   4.299 -13.282  0.00  0.00    +0.178 C 
BRANCH  58  61
ATOM     59  C   LEU A   1      24.298   3.495 -12.224  0.00  0.00    +0.238 C 
ATOM     60  O   LEU A   1      23.913   2.305 -12.279  0.00  0.00    -0.274 OA
ATOM     61  N   SER A   2      23.580   4.505 -12.652  0.00  0.00    -0.295 N 
ATOM     62  H   SER A   2      23.952   5.471 -12.553  0.00  0.00    +0.150 HD
BRANCH  59  63
ATOM     63  CA  LEU A   1      25.633   3.819 -11.561  0.00  0.00    +0.145 C 
BRANCH  63  64
ATOM     64  N   LEU A   1      26.405   4.682 -12.437  0.00  0.00    -0.238 NA
ATOM     65  H   LEU A   1      26.582   5.678 -12.196  0.00  0.00    +0.142 HD
ENDBRANCH  63  64
BRANCH  63  66
ATOM     66  CB  LEU A   1      25.338   4.484 -10.158  0.00  0.00    +0.026 C 
BRANCH  66  67
ATOM     67  CG  LEU A   1      26.520   4.289  -9.209  0.00  0.00    +0.002 C 
ATOM     68  CD2 LEU A   1      26.001   4.804  -7.774  0.00  0.00    +0.000 C 
ATOM     69  CD1 LEU A   1      27.692   5.144  -9.633  0.00  0.00    +0.000 C 
ENDBRANCH  66  67
ENDBRANCH  63  66
ENDBRANCH  59  63
ENDBRANCH  58  61
BRANCH  58  70
ATOM     70  CB  SER A   2      21.468   5.588 -13.515  0.00  0.00    +0.166 C 
BRANCH  70  71
ATOM     71  OG  SER A   2      22.249   6.549 -14.251  0.00  0.00    -0.380 OA
ATOM     72  H   SER A   2      23.071   6.763 -13.743  0.00  0.00    +0.211 HD
ENDBRANCH  70  71
ENDBRANCH  58  70
ENDBRANCH  54  58
ENDBRANCH  52  56
ENDBRANCH  48  52
ENDBRANCH  46  49
ENDBRANCH  42  46
ENDBRANCH  41  43
BRANCH  41  73
ATOM     73  CB  LEU A   5      21.065   0.006 -12.346  0.00  0.00    +0.029 C 
BRANCH  73  74
ATOM     74  CG  LEU A   5      21.863   0.128 -11.032  0.00  0.00    +0.002 C 
ATOM     75  CD2 LEU A   5      21.087   0.866  -9.943  0.00  0.00    +0.000 C 
ATOM     76  CD1 LEU A   5      22.126  -1.206 -10.561  0.00  0.00    +0.000 C 
ENDBRANCH  73  74
ENDBRANCH  41  73
ENDBRANCH   1  41
TORSDOF 30
REMARK  Name = ../refined-set-2016/4fzj/4fzj_pocket.pdb
REMARK  92 active torsions:
REMARK  status: ('A' for Active; 'I' for Inactive)
REMARK    1  A    between atoms: _1  and  _3
REMARK    2  A    between atoms: _3  and  _4
REMARK    3  A    between atoms: _3  and  _6
REMARK    4  A    between atoms: _6  and  _7
REMARK    5  A    between atoms: _7  and  _8
REMARK    6  A    between atoms: _12  and  _13
REMARK    7  A    between atoms: _18  and  _20
REMARK    8  A    between atoms: _20  and  _21
REMARK    9  A    between atoms: _20  and  _23
REMARK   10  A    between atoms: _23  and  _24
REMARK   11  A    between atoms: _27  and  _29
REMARK   12  A    between atoms: _29  and  _30
REMARK   13  A    between atoms: _29  and  _32
REMARK   14  A    between atoms: _32  and  _33
REMARK   15  A    between atoms: _33  and  _34
REMARK   16  A    between atoms: _34  and  _35
REMARK   17  A    between atoms: _44  and  _46
REMARK   18  A    between atoms: _46  and  _47
REMARK   19  A    between atoms: _46  and  _49
REMARK   20  A    between atoms: _49  and  _50
REMARK   21  A    between atoms: _50  and  _51
REMARK   22  A    between atoms: _54  and  _56
REMARK   23  A    between atoms: _56  and  _57
REMARK   24  A    between atoms: _60  and  _62
REMARK   25  A    between atoms: _62  and  _63
REMARK   26  A    between atoms: _62  and  _65
REMARK   27  A    between atoms: _65  and  _66
REMARK   28  A    between atoms: _69  and  _71
REMARK   29  A    between atoms: _71  and  _72
REMARK   30  A    between atoms: _74  and  _76
REMARK   31  A    between atoms: _76  and  _77
REMARK   32  A    between atoms: _76  and  _79
REMARK   33  A    between atoms: _79  and  _80
REMARK   34  A    between atoms: _83  and  _85
REMARK   35  A    between atoms: _85  and  _86
REMARK   36  A    between atoms: _89  and  _91
REMARK   37  A    between atoms: _91  and  _92
REMARK   38  A    between atoms: _91  and  _94
REMARK   39  A    between atoms: _97  and  _99
REMARK   40  A    between atoms: _99  and  _100
REMARK   41  A    between atoms: _99  and  _102
REMARK   42  A    between atoms: _102  and  _103
REMARK   43  A    between atoms: _106  and  _108
REMARK   44  A    between atoms: _108  and  _109
REMARK   45  A    between atoms: _108  and  _111
REMARK   46  A    between atoms: _111  and  _112
REMARK   47  A    between atoms: _114  and  _116
REMARK   48  A    between atoms: _116  and  _117
REMARK   49  A    between atoms: _120  and  _122
REMARK   50  A    between atoms: _122  and  _123
REMARK   51  A    between atoms: _126  and  _128
REMARK   52  A    between atoms: _128  and  _129
REMARK   53  A    between atoms: _128  and  _131
REMARK   54  A    between atoms: _131  and  _132
REMARK   55  A    between atoms: _135  and  _137
REMARK   56  A    between atoms: _137  and  _138
REMARK   57  A    between atoms: _137  and  _140
REMARK   58  A    between atoms: _140  and  _141
REMARK   59  A    between atoms: _144  and  _146
REMARK   60  A    between atoms: _146  and  _147
REMARK   61  A    between atoms: _150  and  _152
REMARK   62  A    between atoms: _152  and  _153
REMARK   63  A    between atoms: _156  and  _158
REMARK   64  A    between atoms: _158  and  _159
REMARK   65  A    between atoms: _162  and  _164
REMARK   66  A    between atoms: _164  and  _165
REMARK   67  A    between atoms: _164  and  _167
REMARK   68  A    between atoms: _167  and  _168
REMARK   69  A    between atoms: _173  and  _175
REMARK   70  A    between atoms: _175  and  _176
REMARK   71  A    between atoms: _175  and  _178
REMARK   72  A    between atoms: _178  and  _179
REMARK   73  A    between atoms: _179  and  _180
REMARK   74  A    between atoms: _180  and  _181
REMARK   75  A    between atoms: _190  and  _192
REMARK   76  A    between atoms: _192  and  _193
REMARK   77  A    between atoms: _192  and  _195
REMARK   78  A    between atoms: _195  and  _196
REMARK   79  A    between atoms: _199  and  _201
REMARK   80  A    between atoms: _201  and  _202
REMARK   81  A    between atoms: _201  and  _204
REMARK   82  A    between atoms: _204  and  _205
REMARK   83  A    between atoms: _208  and  _210
REMARK   84  A    between atoms: _210  and  _211
REMARK   85  A    between atoms: _210  and  _213
REMARK   86  A    between atoms: _213  and  _214
REMARK   87  A    between atoms: _219  and  _221
REMARK   88  A    between atoms: _221  and  _222
REMARK   89  A    between atoms: _221  and  _224
REMARK   90  A    between atoms: _224  and  _225
REMARK   91  A    between atoms: _228  and  _230
REMARK   92  A    between atoms: _230  and  _231
REMARK                            x       y       z     vdW  Elec       q    Type
REMARK                         _______ _______ _______ _____ _____    ______ ____
ROOT
ATOM      1  CA  ARG A   1      16.591  -6.035  -6.974  0.00  0.00    +0.145 C 
ENDROOT
BRANCH   1   2
ATOM      2  C   ARG A   1      18.072  -6.021  -7.042  0.00  0.00    +0.238 C 
ATOM      3  O   ARG A   1      18.770  -6.766  -6.338  0.00  0.00    -0.274 OA
ATOM      4  N   LEU A   2      18.622  -5.161  -7.936  0.00  0.00    -0.298 N 
ATOM      5  H   LEU A   2      18.002  -4.585  -8.540  0.00  0.00    +0.150 HD
BRANCH   4   6
ATOM      6  CA  LEU A   2      20.033  -5.034  -8.060  0.00  0.00    +0.137 C 
BRANCH   6   7
ATOM      7  C   LEU A   2      20.395  -3.718  -7.383  0.00  0.00    +0.227 C 
ATOM      8  O   LEU A   2      19.795  -2.667  -7.680  0.00  0.00    -0.286 OA
ENDBRANCH   6   7
BRANCH   6   9
ATOM      9  CB  LEU A   2      20.387  -4.977  -9.570  0.00  0.00    +0.028 C 
BRANCH   9  10
ATOM     10  CG  LEU A   2      21.879  -4.771  -9.797  0.00  0.00    +0.002 C 
ATOM     11  CD2 LEU A   2      22.819  -5.919  -9.219  0.00  0.00    +0.000 C 
ATOM     12  CD1 LEU A   2      22.109  -4.646 -11.318  0.00  0.00    +0.000 C 
ENDBRANCH   9  10
ENDBRANCH   6   9
ENDBRANCH   4   6
ENDBRANCH   1   2
BRANCH   1  13
ATOM     13  N   ARG A   1      16.198  -7.449  -7.032  0.00  0.00    -0.238 NA
ATOM     14  H   ARG A   1      16.685  -8.143  -6.430  0.00  0.00    +0.142 HD
ENDBRANCH   1  13
BRANCH   1  15
ATOM     15  CB  ARG A   1      16.011  -5.363  -5.674  0.00  0.00    +0.030 C 
BRANCH  15  16
ATOM     16  CG  ARG A   1      16.019  -3.803  -5.770  0.00  0.00    +0.045 C 
BRANCH  16  17
ATOM     17  CD  ARG A   1      14.687  -3.366  -6.402  0.00  0.00    +0.174 C 
BRANCH  17  18
ATOM     18  NE  ARG A   1      14.591  -1.936  -6.584  0.00  0.00    -0.265 N 
ATOM     19  HE  ARG A   1      15.438  -1.361  -6.400  0.00  0.00    +0.259 HD
ATOM     20  CZ  ARG A   1      13.492  -1.317  -6.970  0.00  0.00    +0.342 C 
ATOM     21  NH2 ARG A   1      13.470   0.030  -7.044  0.00  0.00    -0.292 N 
ATOM     22 HH21 ARG A   1      14.318   0.578  -6.797  0.00  0.00    +0.255 HD
ATOM     23 HH22 ARG A   1      12.605   0.520  -7.348  0.00  0.00    +0.255 HD
ATOM     24  NH1 ARG A   1      12.402  -2.039  -7.180  0.00  0.00    -0.292 N 
ATOM     25 HH11 ARG A   1      12.426  -3.069  -7.040  0.00  0.00    +0.255 HD
ATOM     26 HH12 ARG A   1      11.522  -1.576  -7.485  0.00  0.00    +0.255 HD
ENDBRANCH  17  18
ENDBRANCH  16  17
ENDBRANCH  15  16
ENDBRANCH   1  15
TORSDOF 10
REMARK  Name = ../refined-set-2016/4fzj/4fzj_pocket.pdb
REMARK  92 active torsions:
REMARK  status: ('A' for Active; 'I' for Inactive)
REMARK    1  A    between atoms: _1  and  _3
REMARK    2  A    between atoms: _3  and  _4
REMARK    3  A    between atoms: _3  and  _6
REMARK    4  A    between atoms: _6  and  _7
REMARK    5  A    between atoms: _7  and  _8
REMARK    6  A    between atoms: _12  and  _13
REMARK    7  A    between atoms: _18  and  _20
REMARK    8  A    between atoms: _20  and  _21
REMARK    9  A    between atoms: _20  and  _23
REMARK   10  A    between atoms: _23  and  _24
REMARK   11  A    between atoms: _27  and  _29
REMARK   12  A    between atoms: _29  and  _30
REMARK   13  A    between atoms: _29  and  _32
REMARK   14  A    between atoms: _32  and  _33
REMARK   15  A    between atoms: _33  and  _34
REMARK   16  A    between atoms: _34  and  _35
REMARK   17  A    between atoms: _44  and  _46
REMARK   18  A    between atoms: _46  and  _47
REMARK   19  A    between atoms: _46  and  _49
REMARK   20  A    between atoms: _49  and  _50
REMARK   21  A    between atoms: _50  and  _51
REMARK   22  A    between atoms: _54  and  _56
REMARK   23  A    between atoms: _56  and  _57
REMARK   24  A    between atoms: _60  and  _62
REMARK   25  A    between atoms: _62  and  _63
REMARK   26  A    between atoms: _62  and  _65
REMARK   27  A    between atoms: _65  and  _66
REMARK   28  A    between atoms: _69  and  _71
REMARK   29  A    between atoms: _71  and  _72
REMARK   30  A    between atoms: _74  and  _76
REMARK   31  A    between atoms: _76  and  _77
REMARK   32  A    between atoms: _76  and  _79
REMARK   33  A    between atoms: _79  and  _80
REMARK   34  A    between atoms: _83  and  _85
REMARK   35  A    between atoms: _85  and  _86
REMARK   36  A    between atoms: _89  and  _91
REMARK   37  A    between atoms: _91  and  _92
REMARK   38  A    between atoms: _91  and  _94
REMARK   39  A    between atoms: _97  and  _99
REMARK   40  A    between atoms: _99  and  _100
REMARK   41  A    between atoms: _99  and  _102
REMARK   42  A    between atoms: _102  and  _103
REMARK   43  A    between atoms: _106  and  _108
REMARK   44  A    between atoms: _108  and  _109
REMARK   45  A    between atoms: _108  and  _111
REMARK   46  A    between atoms: _111  and  _112
REMARK   47  A    between atoms: _114  and  _116
REMARK   48  A    between atoms: _116  and  _117
REMARK   49  A    between atoms: _120  and  _122
REMARK   50  A    between atoms: _122  and  _123
REMARK   51  A    between atoms: _126  and  _128
REMARK   52  A    between atoms: _128  and  _129
REMARK   53  A    between atoms: _128  and  _131
REMARK   54  A    between atoms: _131  and  _132
REMARK   55  A    between atoms: _135  and  _137
REMARK   56  A    between atoms: _137  and  _138
REMARK   57  A    between atoms: _137  and  _140
REMARK   58  A    between atoms: _140  and  _141
REMARK   59  A    between atoms: _144  and  _146
REMARK   60  A    between atoms: _146  and  _147
REMARK   61  A    between atoms: _150  and  _152
REMARK   62  A    between atoms: _152  and  _153
REMARK   63  A    between atoms: _156  and  _158
REMARK   64  A    between atoms: _158  and  _159
REMARK   65  A    between atoms: _162  and  _164
REMARK   66  A    between atoms: _164  and  _165
REMARK   67  A    between atoms: _164  and  _167
REMARK   68  A    between atoms: _167  and  _168
REMARK   69  A    between atoms: _173  and  _175
REMARK   70  A    between atoms: _175  and  _176
REMARK   71  A    between atoms: _175  and  _178
REMARK   72  A    between atoms: _178  and  _179
REMARK   73  A    between atoms: _179  and  _180
REMARK   74  A    between atoms: _180  and  _181
REMARK   75  A    between atoms: _190  and  _192
REMARK   76  A    between atoms: _192  and  _193
REMARK   77  A    between atoms: _192  and  _195
REMARK   78  A    between atoms: _195  and  _196
REMARK   79  A    between atoms: _199  and  _201
REMARK   80  A    between atoms: _201  and  _202
REMARK   81  A    between atoms: _201  and  _204
REMARK   82  A    between atoms: _204  and  _205
REMARK   83  A    between atoms: _208  and  _210
REMARK   84  A    between atoms: _210  and  _211
REMARK   85  A    between atoms: _210  and  _213
REMARK   86  A    between atoms: _213  and  _214
REMARK   87  A    between atoms: _219  and  _221
REMARK   88  A    between atoms: _221  and  _222
REMARK   89  A    between atoms: _221  and  _224
REMARK   90  A    between atoms: _224  and  _225
REMARK   91  A    between atoms: _228  and  _230
REMARK   92  A    between atoms: _230  and  _231
REMARK                            x       y       z     vdW  Elec       q    Type
REMARK                         _______ _______ _______ _____ _____    ______ ____
ROOT
ATOM      1  CA  ASN A   2      19.044   0.222  -7.215  0.00  0.00    +0.158 C 
ENDROOT
BRANCH   1   4
ATOM      2  C   ASP A   1      20.728   1.833  -6.537  0.00  0.00    +0.239 C 
ATOM      3  O   ASP A   1      21.431   0.934  -6.124  0.00  0.00    -0.274 OA
ATOM      4  N   ASN A   2      19.550   1.616  -7.070  0.00  0.00    -0.297 N 
ATOM      5  H   ASN A   2      18.969   2.416  -7.391  0.00  0.00    +0.150 HD
BRANCH   2   6
ATOM      6  CA  ASP A   1      21.185   3.280  -6.497  0.00  0.00    +0.156 C 
BRANCH   6   7
ATOM      7  N   ASP A   1      22.341   3.367  -5.593  0.00  0.00    -0.238 NA
ATOM      8  H   ASP A   1      22.918   2.525  -5.393  0.00  0.00    +0.142 HD
ENDBRANCH   6   7
BRANCH   6   9
ATOM      9  CB  ASP A   1      21.578   3.768  -7.927  0.00  0.00    +0.140 C 
BRANCH   9  10
ATOM     10  CG  ASP A   1      20.390   4.192  -8.795  0.00  0.00    +0.367 C 
ATOM     11  OD2 ASP A   1      19.156   3.981  -8.509  0.00  0.00    -0.246 OA
ATOM     12  OD1 ASP A   1      20.678   4.715  -9.932  0.00  0.00    -0.246 OA
ENDBRANCH   9  10
ENDBRANCH   6   9
ENDBRANCH   2   6
ENDBRANCH   1   4
BRANCH   1  13
ATOM     13  C   ASN A   2      17.951   0.184  -8.266  0.00  0.00    +0.241 C 
ATOM     14  O   ASN A   2      17.364   1.219  -8.631  0.00  0.00    -0.273 OA
ATOM     15  N   ILE A   3      17.658  -1.019  -8.749  0.00  0.00    -0.297 N 
ATOM     16  H   ILE A   3      18.148  -1.862  -8.389  0.00  0.00    +0.150 HD
BRANCH  15  17
ATOM     17  CA  ILE A   3      16.641  -1.147  -9.791  0.00  0.00    +0.149 C 
BRANCH  17  18
ATOM     18  C   ILE A   3      15.996  -2.512  -9.664  0.00  0.00    +0.241 C 
ATOM     19  O   ILE A   3      16.651  -3.522  -9.266  0.00  0.00    -0.273 OA
ATOM     20  N   ALA A   4      14.753  -2.539 -10.113  0.00  0.00    -0.298 N 
ATOM     21  H   ALA A   4      14.255  -1.649 -10.317  0.00  0.00    +0.150 HD
BRANCH  20  22
ATOM     22  CA  ALA A   4      14.068  -3.834 -10.326  0.00  0.00    +0.137 C 
ATOM     23  CB  ALA A   4      12.607  -3.625 -10.597  0.00  0.00    +0.030 C 
BRANCH  22  24
ATOM     24  C   ALA A   4      14.725  -4.597 -11.434  0.00  0.00    +0.227 C 
ATOM     25  O   ALA A   4      15.070  -4.022 -12.499  0.00  0.00    -0.286 OA
ENDBRANCH  22  24
ENDBRANCH  20  22
ENDBRANCH  17  18
BRANCH  17  26
ATOM     26  CB  ILE A   3      17.353  -0.962 -11.224  0.00  0.00    +0.027 C 
ATOM     27  CG2 ILE A   3      18.175  -2.220 -11.553  0.00  0.00    +0.002 C 
BRANCH  26  28
ATOM     28  CG1 ILE A   3      16.305  -0.647 -12.315  0.00  0.00    +0.002 C 
ATOM     29  CD1 ILE A   3      16.987  -0.275 -13.723  0.00  0.00    +0.000 C 
ENDBRANCH  26  28
ENDBRANCH  17  26
ENDBRANCH  15  17
ENDBRANCH   1  13
BRANCH   1  30
ATOM     30  CB  ASN A   2      18.465  -0.250  -5.822  0.00  0.00    +0.114 C 
BRANCH  30  31
ATOM     31  CG  ASN A   2      17.234   0.562  -5.430  0.00  0.00    +0.222 C 
ATOM     32  ND2 ASN A   2      17.436   1.669  -4.678  0.00  0.00    -0.329 N 
ATOM     33 HD21 ASN A   2      18.395   1.912  -4.358  0.00  0.00    +0.145 HD
ATOM     34 HD22 ASN A   2      16.632   2.276  -4.420  0.00  0.00    +0.145 HD
ATOM     35  OD1 ASN A   2      16.110   0.220  -5.842  0.00  0.00    -0.275 OA
ENDBRANCH  30  31
ENDBRANCH   1  30
TORSDOF 14
REMARK  Name = ../refined-set-2016/4fzj/4fzj_pocket.pdb
REMARK  92 active torsions:
REMARK  status: ('A' for Active; 'I' for Inactive)
REMARK    1  A    between atoms: _1  and  _3
REMARK    2  A    between atoms: _3  and  _4
REMARK    3  A    between atoms: _3  and  _6
REMARK    4  A    between atoms: _6  and  _7
REMARK    5  A    between atoms: _7  and  _8
REMARK    6  A    between atoms: _12  and  _13
REMARK    7  A    between atoms: _18  and  _20
REMARK    8  A    between atoms: _20  and  _21
REMARK    9  A    between atoms: _20  and  _23
REMARK   10  A    between atoms: _23  and  _24
REMARK   11  A    between atoms: _27  and  _29
REMARK   12  A    between atoms: _29  and  _30
REMARK   13  A    between atoms: _29  and  _32
REMARK   14  A    between atoms: _32  and  _33
REMARK   15  A    between atoms: _33  and  _34
REMARK   16  A    between atoms: _34  and  _35
REMARK   17  A    between atoms: _44  and  _46
REMARK   18  A    between atoms: _46  and  _47
REMARK   19  A    between atoms: _46  and  _49
REMARK   20  A    between atoms: _49  and  _50
REMARK   21  A    between atoms: _50  and  _51
REMARK   22  A    between atoms: _54  and  _56
REMARK   23  A    between atoms: _56  and  _57
REMARK   24  A    between atoms: _60  and  _62
REMARK   25  A    between atoms: _62  and  _63
REMARK   26  A    between atoms: _62  and  _65
REMARK   27  A    between atoms: _65  and  _66
REMARK   28  A    between atoms: _69  and  _71
REMARK   29  A    between atoms: _71  and  _72
REMARK   30  A    between atoms: _74  and  _76
REMARK   31  A    between atoms: _76  and  _77
REMARK   32  A    between atoms: _76  and  _79
REMARK   33  A    between atoms: _79  and  _80
REMARK   34  A    between atoms: _83  and  _85
REMARK   35  A    between atoms: _85  and  _86
REMARK   36  A    between atoms: _89  and  _91
REMARK   37  A    between atoms: _91  and  _92
REMARK   38  A    between atoms: _91  and  _94
REMARK   39  A    between atoms: _97  and  _99
REMARK   40  A    between atoms: _99  and  _100
REMARK   41  A    between atoms: _99  and  _102
REMARK   42  A    between atoms: _102  and  _103
REMARK   43  A    between atoms: _106  and  _108
REMARK   44  A    between atoms: _108  and  _109
REMARK   45  A    between atoms: _108  and  _111
REMARK   46  A    between atoms: _111  and  _112
REMARK   47  A    between atoms: _114  and  _116
REMARK   48  A    between atoms: _116  and  _117
REMARK   49  A    between atoms: _120  and  _122
REMARK   50  A    between atoms: _122  and  _123
REMARK   51  A    between atoms: _126  and  _128
REMARK   52  A    between atoms: _128  and  _129
REMARK   53  A    between atoms: _128  and  _131
REMARK   54  A    between atoms: _131  and  _132
REMARK   55  A    between atoms: _135  and  _137
REMARK   56  A    between atoms: _137  and  _138
REMARK   57  A    between atoms: _137  and  _140
REMARK   58  A    between atoms: _140  and  _141
REMARK   59  A    between atoms: _144  and  _146
REMARK   60  A    between atoms: _146  and  _147
REMARK   61  A    between atoms: _150  and  _152
REMARK   62  A    between atoms: _152  and  _153
REMARK   63  A    between atoms: _156  and  _158
REMARK   64  A    between atoms: _158  and  _159
REMARK   65  A    between atoms: _162  and  _164
REMARK   66  A    between atoms: _164  and  _165
REMARK   67  A    between atoms: _164  and  _167
REMARK   68  A    between atoms: _167  and  _168
REMARK   69  A    between atoms: _173  and  _175
REMARK   70  A    between atoms: _175  and  _176
REMARK   71  A    between atoms: _175  and  _178
REMARK   72  A    between atoms: _178  and  _179
REMARK   73  A    between atoms: _179  and  _180
REMARK   74  A    between atoms: _180  and  _181
REMARK   75  A    between atoms: _190  and  _192
REMARK   76  A    between atoms: _192  and  _193
REMARK   77  A    between atoms: _192  and  _195
REMARK   78  A    between atoms: _195  and  _196
REMARK   79  A    between atoms: _199  and  _201
REMARK   80  A    between atoms: _201  and  _202
REMARK   81  A    between atoms: _201  and  _204
REMARK   82  A    between atoms: _204  and  _205
REMARK   83  A    between atoms: _208  and  _210
REMARK   84  A    between atoms: _210  and  _211
REMARK   85  A    between atoms: _210  and  _213
REMARK   86  A    between atoms: _213  and  _214
REMARK   87  A    between atoms: _219  and  _221
REMARK   88  A    between atoms: _221  and  _222
REMARK   89  A    between atoms: _221  and  _224
REMARK   90  A    between atoms: _224  and  _225
REMARK   91  A    between atoms: _228  and  _230
REMARK   92  A    between atoms: _230  and  _231
REMARK                            x       y       z     vdW  Elec       q    Type
REMARK                         _______ _______ _______ _____ _____    ______ ____
ROOT
ATOM      1  O   HOH     1      22.227   6.980  -9.870  0.00  0.00    +0.000 OA
ENDROOT
TORSDOF 0
REMARK  Name = ../refined-set-2016/4fzj/4fzj_pocket.pdb
REMARK  92 active torsions:
REMARK  status: ('A' for Active; 'I' for Inactive)
REMARK    1  A    between atoms: _1  and  _3
REMARK    2  A    between atoms: _3  and  _4
REMARK    3  A    between atoms: _3  and  _6
REMARK    4  A    between atoms: _6  and  _7
REMARK    5  A    between atoms: _7  and  _8
REMARK    6  A    between atoms: _12  and  _13
REMARK    7  A    between atoms: _18  and  _20
REMARK    8  A    between atoms: _20  and  _21
REMARK    9  A    between atoms: _20  and  _23
REMARK   10  A    between atoms: _23  and  _24
REMARK   11  A    between atoms: _27  and  _29
REMARK   12  A    between atoms: _29  and  _30
REMARK   13  A    between atoms: _29  and  _32
REMARK   14  A    between atoms: _32  and  _33
REMARK   15  A    between atoms: _33  and  _34
REMARK   16  A    between atoms: _34  and  _35
REMARK   17  A    between atoms: _44  and  _46
REMARK   18  A    between atoms: _46  and  _47
REMARK   19  A    between atoms: _46  and  _49
REMARK   20  A    between atoms: _49  and  _50
REMARK   21  A    between atoms: _50  and  _51
REMARK   22  A    between atoms: _54  and  _56
REMARK   23  A    between atoms: _56  and  _57
REMARK   24  A    between atoms: _60  and  _62
REMARK   25  A    between atoms: _62  and  _63
REMARK   26  A    between atoms: _62  and  _65
REMARK   27  A    between atoms: _65  and  _66
REMARK   28  A    between atoms: _69  and  _71
REMARK   29  A    between atoms: _71  and  _72
REMARK   30  A    between atoms: _74  and  _76
REMARK   31  A    between atoms: _76  and  _77
REMARK   32  A    between atoms: _76  and  _79
REMARK   33  A    between atoms: _79  and  _80
REMARK   34  A    between atoms: _83  and  _85
REMARK   35  A    between atoms: _85  and  _86
REMARK   36  A    between atoms: _89  and  _91
REMARK   37  A    between atoms: _91  and  _92
REMARK   38  A    between atoms: _91  and  _94
REMARK   39  A    between atoms: _97  and  _99
REMARK   40  A    between atoms: _99  and  _100
REMARK   41  A    between atoms: _99  and  _102
REMARK   42  A    between atoms: _102  and  _103
REMARK   43  A    between atoms: _106  and  _108
REMARK   44  A    between atoms: _108  and  _109
REMARK   45  A    between atoms: _108  and  _111
REMARK   46  A    between atoms: _111  and  _112
REMARK   47  A    between atoms: _114  and  _116
REMARK   48  A    between atoms: _116  and  _117
REMARK   49  A    between atoms: _120  and  _122
REMARK   50  A    between atoms: _122  and  _123
REMARK   51  A    between atoms: _126  and  _128
REMARK   52  A    between atoms: _128  and  _129
REMARK   53  A    between atoms: _128  and  _131
REMARK   54  A    between atoms: _131  and  _132
REMARK   55  A    between atoms: _135  and  _137
REMARK   56  A    between atoms: _137  and  _138
REMARK   57  A    between atoms: _137  and  _140
REMARK   58  A    between atoms: _140  and  _141
REMARK   59  A    between atoms: _144  and  _146
REMARK   60  A    between atoms: _146  and  _147
REMARK   61  A    between atoms: _150  and  _152
REMARK   62  A    between atoms: _152  and  _153
REMARK   63  A    between atoms: _156  and  _158
REMARK   64  A    between atoms: _158  and  _159
REMARK   65  A    between atoms: _162  and  _164
REMARK   66  A    between atoms: _164  and  _165
REMARK   67  A    between atoms: _164  and  _167
REMARK   68  A    between atoms: _167  and  _168
REMARK   69  A    between atoms: _173  and  _175
REMARK   70  A    between atoms: _175  and  _176
REMARK   71  A    between atoms: _175  and  _178
REMARK   72  A    between atoms: _178  and  _179
REMARK   73  A    between atoms: _179  and  _180
REMARK   74  A    between atoms: _180  and  _181
REMARK   75  A    between atoms: _190  and  _192
REMARK   76  A    between atoms: _192  and  _193
REMARK   77  A    between atoms: _192  and  _195
REMARK   78  A    between atoms: _195  and  _196
REMARK   79  A    between atoms: _199  and  _201
REMARK   80  A    between atoms: _201  and  _202
REMARK   81  A    between atoms: _201  and  _204
REMARK   82  A    between atoms: _204  and  _205
REMARK   83  A    between atoms: _208  and  _210
REMARK   84  A    between atoms: _210  and  _211
REMARK   85  A    between atoms: _210  and  _213
REMARK   86  A    between atoms: _213  and  _214
REMARK   87  A    between atoms: _219  and  _221
REMARK   88  A    between atoms: _221  and  _222
REMARK   89  A    between atoms: _221  and  _224
REMARK   90  A    between atoms: _224  and  _225
REMARK   91  A    between atoms: _228  and  _230
REMARK   92  A    between atoms: _230  and  _231
REMARK                            x       y       z     vdW  Elec       q    Type
REMARK                         _______ _______ _______ _____ _____    ______ ____
ROOT
ATOM      1  O   HOH     1      23.776   7.326 -12.067  0.00  0.00    +0.000 OA
ENDROOT
TORSDOF 0
REMARK  Name = ../refined-set-2016/4fzj/4fzj_pocket.pdb
REMARK  92 active torsions:
REMARK  status: ('A' for Active; 'I' for Inactive)
REMARK    1  A    between atoms: _1  and  _3
REMARK    2  A    between atoms: _3  and  _4
REMARK    3  A    between atoms: _3  and  _6
REMARK    4  A    between atoms: _6  and  _7
REMARK    5  A    between atoms: _7  and  _8
REMARK    6  A    between atoms: _12  and  _13
REMARK    7  A    between atoms: _18  and  _20
REMARK    8  A    between atoms: _20  and  _21
REMARK    9  A    between atoms: _20  and  _23
REMARK   10  A    between atoms: _23  and  _24
REMARK   11  A    between atoms: _27  and  _29
REMARK   12  A    between atoms: _29  and  _30
REMARK   13  A    between atoms: _29  and  _32
REMARK   14  A    between atoms: _32  and  _33
REMARK   15  A    between atoms: _33  and  _34
REMARK   16  A    between atoms: _34  and  _35
REMARK   17  A    between atoms: _44  and  _46
REMARK   18  A    between atoms: _46  and  _47
REMARK   19  A    between atoms: _46  and  _49
REMARK   20  A    between atoms: _49  and  _50
REMARK   21  A    between atoms: _50  and  _51
REMARK   22  A    between atoms: _54  and  _56
REMARK   23  A    between atoms: _56  and  _57
REMARK   24  A    between atoms: _60  and  _62
REMARK   25  A    between atoms: _62  and  _63
REMARK   26  A    between atoms: _62  and  _65
REMARK   27  A    between atoms: _65  and  _66
REMARK   28  A    between atoms: _69  and  _71
REMARK   29  A    between atoms: _71  and  _72
REMARK   30  A    between atoms: _74  and  _76
REMARK   31  A    between atoms: _76  and  _77
REMARK   32  A    between atoms: _76  and  _79
REMARK   33  A    between atoms: _79  and  _80
REMARK   34  A    between atoms: _83  and  _85
REMARK   35  A    between atoms: _85  and  _86
REMARK   36  A    between atoms: _89  and  _91
REMARK   37  A    between atoms: _91  and  _92
REMARK   38  A    between atoms: _91  and  _94
REMARK   39  A    between atoms: _97  and  _99
REMARK   40  A    between atoms: _99  and  _100
REMARK   41  A    between atoms: _99  and  _102
REMARK   42  A    between atoms: _102  and  _103
REMARK   43  A    between atoms: _106  and  _108
REMARK   44  A    between atoms: _108  and  _109
REMARK   45  A    between atoms: _108  and  _111
REMARK   46  A    between atoms: _111  and  _112
REMARK   47  A    between atoms: _114  and  _116
REMARK   48  A    between atoms: _116  and  _117
REMARK   49  A    between atoms: _120  and  _122
REMARK   50  A    between atoms: _122  and  _123
REMARK   51  A    between atoms: _126  and  _128
REMARK   52  A    between atoms: _128  and  _129
REMARK   53  A    between atoms: _128  and  _131
REMARK   54  A    between atoms: _131  and  _132
REMARK   55  A    between atoms: _135  and  _137
REMARK   56  A    between atoms: _137  and  _138
REMARK   57  A    between atoms: _137  and  _140
REMARK   58  A    between atoms: _140  and  _141
REMARK   59  A    between atoms: _144  and  _146
REMARK   60  A    between atoms: _146  and  _147
REMARK   61  A    between atoms: _150  and  _152
REMARK   62  A    between atoms: _152  and  _153
REMARK   63  A    between atoms: _156  and  _158
REMARK   64  A    between atoms: _158  and  _159
REMARK   65  A    between atoms: _162  and  _164
REMARK   66  A    between atoms: _164  and  _165
REMARK   67  A    between atoms: _164  and  _167
REMARK   68  A    between atoms: _167  and  _168
REMARK   69  A    between atoms: _173  and  _175
REMARK   70  A    between atoms: _175  and  _176
REMARK   71  A    between atoms: _175  and  _178
REMARK   72  A    between atoms: _178  and  _179
REMARK   73  A    between atoms: _179  and  _180
REMARK   74  A    between atoms: _180  and  _181
REMARK   75  A    between atoms: _190  and  _192
REMARK   76  A    between atoms: _192  and  _193
REMARK   77  A    between atoms: _192  and  _195
REMARK   78  A    between atoms: _195  and  _196
REMARK   79  A    between atoms: _199  and  _201
REMARK   80  A    between atoms: _201  and  _202
REMARK   81  A    between atoms: _201  and  _204
REMARK   82  A    between atoms: _204  and  _205
REMARK   83  A    between atoms: _208  and  _210
REMARK   84  A    between atoms: _210  and  _211
REMARK   85  A    between atoms: _210  and  _213
REMARK   86  A    between atoms: _213  and  _214
REMARK   87  A    between atoms: _219  and  _221
REMARK   88  A    between atoms: _221  and  _222
REMARK   89  A    between atoms: _221  and  _224
REMARK   90  A    between atoms: _224  and  _225
REMARK   91  A    between atoms: _228  and  _230
REMARK   92  A    between atoms: _230  and  _231
REMARK                            x       y       z     vdW  Elec       q    Type
REMARK                         _______ _______ _______ _____ _____    ______ ____
ROOT
ATOM      1  O   HOH     1      12.729   3.229  -8.206  0.00  0.00    +0.000 OA
ENDROOT
TORSDOF 0
REMARK  Name = ../refined-set-2016/4fzj/4fzj_pocket.pdb
REMARK  92 active torsions:
REMARK  status: ('A' for Active; 'I' for Inactive)
REMARK    1  A    between atoms: _1  and  _3
REMARK    2  A    between atoms: _3  and  _4
REMARK    3  A    between atoms: _3  and  _6
REMARK    4  A    between atoms: _6  and  _7
REMARK    5  A    between atoms: _7  and  _8
REMARK    6  A    between atoms: _12  and  _13
REMARK    7  A    between atoms: _18  and  _20
REMARK    8  A    between atoms: _20  and  _21
REMARK    9  A    between atoms: _20  and  _23
REMARK   10  A    between atoms: _23  and  _24
REMARK   11  A    between atoms: _27  and  _29
REMARK   12  A    between atoms: _29  and  _30
REMARK   13  A    between atoms: _29  and  _32
REMARK   14  A    between atoms: _32  and  _33
REMARK   15  A    between atoms: _33  and  _34
REMARK   16  A    between atoms: _34  and  _35
REMARK   17  A    between atoms: _44  and  _46
REMARK   18  A    between atoms: _46  and  _47
REMARK   19  A    between atoms: _46  and  _49
REMARK   20  A    between atoms: _49  and  _50
REMARK   21  A    between atoms: _50  and  _51
REMARK   22  A    between atoms: _54  and  _56
REMARK   23  A    between atoms: _56  and  _57
REMARK   24  A    between atoms: _60  and  _62
REMARK   25  A    between atoms: _62  and  _63
REMARK   26  A    between atoms: _62  and  _65
REMARK   27  A    between atoms: _65  and  _66
REMARK   28  A    between atoms: _69  and  _71
REMARK   29  A    between atoms: _71  and  _72
REMARK   30  A    between atoms: _74  and  _76
REMARK   31  A    between atoms: _76  and  _77
REMARK   32  A    between atoms: _76  and  _79
REMARK   33  A    between atoms: _79  and  _80
REMARK   34  A    between atoms: _83  and  _85
REMARK   35  A    between atoms: _85  and  _86
REMARK   36  A    between atoms: _89  and  _91
REMARK   37  A    between atoms: _91  and  _92
REMARK   38  A    between atoms: _91  and  _94
REMARK   39  A    between atoms: _97  and  _99
REMARK   40  A    between atoms: _99  and  _100
REMARK   41  A    between atoms: _99  and  _102
REMARK   42  A    between atoms: _102  and  _103
REMARK   43  A    between atoms: _106  and  _108
REMARK   44  A    between atoms: _108  and  _109
REMARK   45  A    between atoms: _108  and  _111
REMARK   46  A    between atoms: _111  and  _112
REMARK   47  A    between atoms: _114  and  _116
REMARK   48  A    between atoms: _116  and  _117
REMARK   49  A    between atoms: _120  and  _122
REMARK   50  A    between atoms: _122  and  _123
REMARK   51  A    between atoms: _126  and  _128
REMARK   52  A    between atoms: _128  and  _129
REMARK   53  A    between atoms: _128  and  _131
REMARK   54  A    between atoms: _131  and  _132
REMARK   55  A    between atoms: _135  and  _137
REMARK   56  A    between atoms: _137  and  _138
REMARK   57  A    between atoms: _137  and  _140
REMARK   58  A    between atoms: _140  and  _141
REMARK   59  A    between atoms: _144  and  _146
REMARK   60  A    between atoms: _146  and  _147
REMARK   61  A    between atoms: _150  and  _152
REMARK   62  A    between atoms: _152  and  _153
REMARK   63  A    between atoms: _156  and  _158
REMARK   64  A    between atoms: _158  and  _159
REMARK   65  A    between atoms: _162  and  _164
REMARK   66  A    between atoms: _164  and  _165
REMARK   67  A    between atoms: _164  and  _167
REMARK   68  A    between atoms: _167  and  _168
REMARK   69  A    between atoms: _173  and  _175
REMARK   70  A    between atoms: _175  and  _176
REMARK   71  A    between atoms: _175  and  _178
REMARK   72  A    between atoms: _178  and  _179
REMARK   73  A    between atoms: _179  and  _180
REMARK   74  A    between atoms: _180  and  _181
REMARK   75  A    between atoms: _190  and  _192
REMARK   76  A    between atoms: _192  and  _193
REMARK   77  A    between atoms: _192  and  _195
REMARK   78  A    between atoms: _195  and  _196
REMARK   79  A    between atoms: _199  and  _201
REMARK   80  A    between atoms: _201  and  _202
REMARK   81  A    between atoms: _201  and  _204
REMARK   82  A    between atoms: _204  and  _205
REMARK   83  A    between atoms: _208  and  _210
REMARK   84  A    between atoms: _210  and  _211
REMARK   85  A    between atoms: _210  and  _213
REMARK   86  A    between atoms: _213  and  _214
REMARK   87  A    between atoms: _219  and  _221
REMARK   88  A    between atoms: _221  and  _222
REMARK   89  A    between atoms: _221  and  _224
REMARK   90  A    between atoms: _224  and  _225
REMARK   91  A    between atoms: _228  and  _230
REMARK   92  A    between atoms: _230  and  _231
REMARK                            x       y       z     vdW  Elec       q    Type
REMARK                         _______ _______ _______ _____ _____    ______ ____
ROOT
ATOM      1  O   HOH     1      13.437   5.585 -11.314  0.00  0.00    +0.000 OA
ENDROOT
TORSDOF 0
REMARK  Name = ../refined-set-2016/4fzj/4fzj_pocket.pdb
REMARK  92 active torsions:
REMARK  status: ('A' for Active; 'I' for Inactive)
REMARK    1  A    between atoms: _1  and  _3
REMARK    2  A    between atoms: _3  and  _4
REMARK    3  A    between atoms: _3  and  _6
REMARK    4  A    between atoms: _6  and  _7
REMARK    5  A    between atoms: _7  and  _8
REMARK    6  A    between atoms: _12  and  _13
REMARK    7  A    between atoms: _18  and  _20
REMARK    8  A    between atoms: _20  and  _21
REMARK    9  A    between atoms: _20  and  _23
REMARK   10  A    between atoms: _23  and  _24
REMARK   11  A    between atoms: _27  and  _29
REMARK   12  A    between atoms: _29  and  _30
REMARK   13  A    between atoms: _29  and  _32
REMARK   14  A    between atoms: _32  and  _33
REMARK   15  A    between atoms: _33  and  _34
REMARK   16  A    between atoms: _34  and  _35
REMARK   17  A    between atoms: _44  and  _46
REMARK   18  A    between atoms: _46  and  _47
REMARK   19  A    between atoms: _46  and  _49
REMARK   20  A    between atoms: _49  and  _50
REMARK   21  A    between atoms: _50  and  _51
REMARK   22  A    between atoms: _54  and  _56
REMARK   23  A    between atoms: _56  and  _57
REMARK   24  A    between atoms: _60  and  _62
REMARK   25  A    between atoms: _62  and  _63
REMARK   26  A    between atoms: _62  and  _65
REMARK   27  A    between atoms: _65  and  _66
REMARK   28  A    between atoms: _69  and  _71
REMARK   29  A    between atoms: _71  and  _72
REMARK   30  A    between atoms: _74  and  _76
REMARK   31  A    between atoms: _76  and  _77
REMARK   32  A    between atoms: _76  and  _79
REMARK   33  A    between atoms: _79  and  _80
REMARK   34  A    between atoms: _83  and  _85
REMARK   35  A    between atoms: _85  and  _86
REMARK   36  A    between atoms: _89  and  _91
REMARK   37  A    between atoms: _91  and  _92
REMARK   38  A    between atoms: _91  and  _94
REMARK   39  A    between atoms: _97  and  _99
REMARK   40  A    between atoms: _99  and  _100
REMARK   41  A    between atoms: _99  and  _102
REMARK   42  A    between atoms: _102  and  _103
REMARK   43  A    between atoms: _106  and  _108
REMARK   44  A    between atoms: _108  and  _109
REMARK   45  A    between atoms: _108  and  _111
REMARK   46  A    between atoms: _111  and  _112
REMARK   47  A    between atoms: _114  and  _116
REMARK   48  A    between atoms: _116  and  _117
REMARK   49  A    between atoms: _120  and  _122
REMARK   50  A    between atoms: _122  and  _123
REMARK   51  A    between atoms: _126  and  _128
REMARK   52  A    between atoms: _128  and  _129
REMARK   53  A    between atoms: _128  and  _131
REMARK   54  A    between atoms: _131  and  _132
REMARK   55  A    between atoms: _135  and  _137
REMARK   56  A    between atoms: _137  and  _138
REMARK   57  A    between atoms: _137  and  _140
REMARK   58  A    between atoms: _140  and  _141
REMARK   59  A    between atoms: _144  and  _146
REMARK   60  A    between atoms: _146  and  _147
REMARK   61  A    between atoms: _150  and  _152
REMARK   62  A    between atoms: _152  and  _153
REMARK   63  A    between atoms: _156  and  _158
REMARK   64  A    between atoms: _158  and  _159
REMARK   65  A    between atoms: _162  and  _164
REMARK   66  A    between atoms: _164  and  _165
REMARK   67  A    between atoms: _164  and  _167
REMARK   68  A    between atoms: _167  and  _168
REMARK   69  A    between atoms: _173  and  _175
REMARK   70  A    between atoms: _175  and  _176
REMARK   71  A    between atoms: _175  and  _178
REMARK   72  A    between atoms: _178  and  _179
REMARK   73  A    between atoms: _179  and  _180
REMARK   74  A    between atoms: _180  and  _181
REMARK   75  A    between atoms: _190  and  _192
REMARK   76  A    between atoms: _192  and  _193
REMARK   77  A    between atoms: _192  and  _195
REMARK   78  A    between atoms: _195  and  _196
REMARK   79  A    between atoms: _199  and  _201
REMARK   80  A    between atoms: _201  and  _202
REMARK   81  A    between atoms: _201  and  _204
REMARK   82  A    between atoms: _204  and  _205
REMARK   83  A    between atoms: _208  and  _210
REMARK   84  A    between atoms: _210  and  _211
REMARK   85  A    between atoms: _210  and  _213
REMARK   86  A    between atoms: _213  and  _214
REMARK   87  A    between atoms: _219  and  _221
REMARK   88  A    between atoms: _221  and  _222
REMARK   89  A    between atoms: _221  and  _224
REMARK   90  A    between atoms: _224  and  _225
REMARK   91  A    between atoms: _228  and  _230
REMARK   92  A    between atoms: _230  and  _231
REMARK                            x       y       z     vdW  Elec       q    Type
REMARK                         _______ _______ _______ _____ _____    ______ ____
ROOT
ATOM      1  O   HOH     1      13.345   0.005 -10.657  0.00  0.00    +0.000 OA
ENDROOT
TORSDOF 0
REMARK  Name = ../refined-set-2016/4fzj/4fzj_pocket.pdb
REMARK  92 active torsions:
REMARK  status: ('A' for Active; 'I' for Inactive)
REMARK    1  A    between atoms: _1  and  _3
REMARK    2  A    between atoms: _3  and  _4
REMARK    3  A    between atoms: _3  and  _6
REMARK    4  A    between atoms: _6  and  _7
REMARK    5  A    between atoms: _7  and  _8
REMARK    6  A    between atoms: _12  and  _13
REMARK    7  A    between atoms: _18  and  _20
REMARK    8  A    between atoms: _20  and  _21
REMARK    9  A    between atoms: _20  and  _23
REMARK   10  A    between atoms: _23  and  _24
REMARK   11  A    between atoms: _27  and  _29
REMARK   12  A    between atoms: _29  and  _30
REMARK   13  A    between atoms: _29  and  _32
REMARK   14  A    between atoms: _32  and  _33
REMARK   15  A    between atoms: _33  and  _34
REMARK   16  A    between atoms: _34  and  _35
REMARK   17  A    between atoms: _44  and  _46
REMARK   18  A    between atoms: _46  and  _47
REMARK   19  A    between atoms: _46  and  _49
REMARK   20  A    between atoms: _49  and  _50
REMARK   21  A    between atoms: _50  and  _51
REMARK   22  A    between atoms: _54  and  _56
REMARK   23  A    between atoms: _56  and  _57
REMARK   24  A    between atoms: _60  and  _62
REMARK   25  A    between atoms: _62  and  _63
REMARK   26  A    between atoms: _62  and  _65
REMARK   27  A    between atoms: _65  and  _66
REMARK   28  A    between atoms: _69  and  _71
REMARK   29  A    between atoms: _71  and  _72
REMARK   30  A    between atoms: _74  and  _76
REMARK   31  A    between atoms: _76  and  _77
REMARK   32  A    between atoms: _76  and  _79
REMARK   33  A    between atoms: _79  and  _80
REMARK   34  A    between atoms: _83  and  _85
REMARK   35  A    between atoms: _85  and  _86
REMARK   36  A    between atoms: _89  and  _91
REMARK   37  A    between atoms: _91  and  _92
REMARK   38  A    between atoms: _91  and  _94
REMARK   39  A    between atoms: _97  and  _99
REMARK   40  A    between atoms: _99  and  _100
REMARK   41  A    between atoms: _99  and  _102
REMARK   42  A    between atoms: _102  and  _103
REMARK   43  A    between atoms: _106  and  _108
REMARK   44  A    between atoms: _108  and  _109
REMARK   45  A    between atoms: _108  and  _111
REMARK   46  A    between atoms: _111  and  _112
REMARK   47  A    between atoms: _114  and  _116
REMARK   48  A    between atoms: _116  and  _117
REMARK   49  A    between atoms: _120  and  _122
REMARK   50  A    between atoms: _122  and  _123
REMARK   51  A    between atoms: _126  and  _128
REMARK   52  A    between atoms: _128  and  _129
REMARK   53  A    between atoms: _128  and  _131
REMARK   54  A    between atoms: _131  and  _132
REMARK   55  A    between atoms: _135  and  _137
REMARK   56  A    between atoms: _137  and  _138
REMARK   57  A    between atoms: _137  and  _140
REMARK   58  A    between atoms: _140  and  _141
REMARK   59  A    between atoms: _144  and  _146
REMARK   60  A    between atoms: _146  and  _147
REMARK   61  A    between atoms: _150  and  _152
REMARK   62  A    between atoms: _152  and  _153
REMARK   63  A    between atoms: _156  and  _158
REMARK   64  A    between atoms: _158  and  _159
REMARK   65  A    between atoms: _162  and  _164
REMARK   66  A    between atoms: _164  and  _165
REMARK   67  A    between atoms: _164  and  _167
REMARK   68  A    between atoms: _167  and  _168
REMARK   69  A    between atoms: _173  and  _175
REMARK   70  A    between atoms: _175  and  _176
REMARK   71  A    between atoms: _175  and  _178
REMARK   72  A    between atoms: _178  and  _179
REMARK   73  A    between atoms: _179  and  _180
REMARK   74  A    between atoms: _180  and  _181
REMARK   75  A    between atoms: _190  and  _192
REMARK   76  A    between atoms: _192  and  _193
REMARK   77  A    between atoms: _192  and  _195
REMARK   78  A    between atoms: _195  and  _196
REMARK   79  A    between atoms: _199  and  _201
REMARK   80  A    between atoms: _201  and  _202
REMARK   81  A    between atoms: _201  and  _204
REMARK   82  A    between atoms: _204  and  _205
REMARK   83  A    between atoms: _208  and  _210
REMARK   84  A    between atoms: _210  and  _211
REMARK   85  A    between atoms: _210  and  _213
REMARK   86  A    between atoms: _213  and  _214
REMARK   87  A    between atoms: _219  and  _221
REMARK   88  A    between atoms: _221  and  _222
REMARK   89  A    between atoms: _221  and  _224
REMARK   90  A    between atoms: _224  and  _225
REMARK   91  A    between atoms: _228  and  _230
REMARK   92  A    between atoms: _230  and  _231
REMARK                            x       y       z     vdW  Elec       q    Type
REMARK                         _______ _______ _______ _____ _____    ______ ____
ROOT
ATOM      1  O   HOH     1      10.996   0.219  -9.143  0.00  0.00    +0.000 OA
ENDROOT
TORSDOF 0
REMARK  Name = ../refined-set-2016/4fzj/4fzj_pocket.pdb
REMARK  92 active torsions:
REMARK  status: ('A' for Active; 'I' for Inactive)
REMARK    1  A    between atoms: _1  and  _3
REMARK    2  A    between atoms: _3  and  _4
REMARK    3  A    between atoms: _3  and  _6
REMARK    4  A    between atoms: _6  and  _7
REMARK    5  A    between atoms: _7  and  _8
REMARK    6  A    between atoms: _12  and  _13
REMARK    7  A    between atoms: _18  and  _20
REMARK    8  A    between atoms: _20  and  _21
REMARK    9  A    between atoms: _20  and  _23
REMARK   10  A    between atoms: _23  and  _24
REMARK   11  A    between atoms: _27  and  _29
REMARK   12  A    between atoms: _29  and  _30
REMARK   13  A    between atoms: _29  and  _32
REMARK   14  A    between atoms: _32  and  _33
REMARK   15  A    between atoms: _33  and  _34
REMARK   16  A    between atoms: _34  and  _35
REMARK   17  A    between atoms: _44  and  _46
REMARK   18  A    between atoms: _46  and  _47
REMARK   19  A    between atoms: _46  and  _49
REMARK   20  A    between atoms: _49  and  _50
REMARK   21  A    between atoms: _50  and  _51
REMARK   22  A    between atoms: _54  and  _56
REMARK   23  A    between atoms: _56  and  _57
REMARK   24  A    between atoms: _60  and  _62
REMARK   25  A    between atoms: _62  and  _63
REMARK   26  A    between atoms: _62  and  _65
REMARK   27  A    between atoms: _65  and  _66
REMARK   28  A    between atoms: _69  and  _71
REMARK   29  A    between atoms: _71  and  _72
REMARK   30  A    between atoms: _74  and  _76
REMARK   31  A    between atoms: _76  and  _77
REMARK   32  A    between atoms: _76  and  _79
REMARK   33  A    between atoms: _79  and  _80
REMARK   34  A    between atoms: _83  and  _85
REMARK   35  A    between atoms: _85  and  _86
REMARK   36  A    between atoms: _89  and  _91
REMARK   37  A    between atoms: _91  and  _92
REMARK   38  A    between atoms: _91  and  _94
REMARK   39  A    between atoms: _97  and  _99
REMARK   40  A    between atoms: _99  and  _100
REMARK   41  A    between atoms: _99  and  _102
REMARK   42  A    between atoms: _102  and  _103
REMARK   43  A    between atoms: _106  and  _108
REMARK   44  A    between atoms: _108  and  _109
REMARK   45  A    between atoms: _108  and  _111
REMARK   46  A    between atoms: _111  and  _112
REMARK   47  A    between atoms: _114  and  _116
REMARK   48  A    between atoms: _116  and  _117
REMARK   49  A    between atoms: _120  and  _122
REMARK   50  A    between atoms: _122  and  _123
REMARK   51  A    between atoms: _126  and  _128
REMARK   52  A    between atoms: _128  and  _129
REMARK   53  A    between atoms: _128  and  _131
REMARK   54  A    between atoms: _131  and  _132
REMARK   55  A    between atoms: _135  and  _137
REMARK   56  A    between atoms: _137  and  _138
REMARK   57  A    between atoms: _137  and  _140
REMARK   58  A    between atoms: _140  and  _141
REMARK   59  A    between atoms: _144  and  _146
REMARK   60  A    between atoms: _146  and  _147
REMARK   61  A    between atoms: _150  and  _152
REMARK   62  A    between atoms: _152  and  _153
REMARK   63  A    between atoms: _156  and  _158
REMARK   64  A    between atoms: _158  and  _159
REMARK   65  A    between atoms: _162  and  _164
REMARK   66  A    between atoms: _164  and  _165
REMARK   67  A    between atoms: _164  and  _167
REMARK   68  A    between atoms: _167  and  _168
REMARK   69  A    between atoms: _173  and  _175
REMARK   70  A    between atoms: _175  and  _176
REMARK   71  A    between atoms: _175  and  _178
REMARK   72  A    between atoms: _178  and  _179
REMARK   73  A    between atoms: _179  and  _180
REMARK   74  A    between atoms: _180  and  _181
REMARK   75  A    between atoms: _190  and  _192
REMARK   76  A    between atoms: _192  and  _193
REMARK   77  A    between atoms: _192  and  _195
REMARK   78  A    between atoms: _195  and  _196
REMARK   79  A    between atoms: _199  and  _201
REMARK   80  A    between atoms: _201  and  _202
REMARK   81  A    between atoms: _201  and  _204
REMARK   82  A    between atoms: _204  and  _205
REMARK   83  A    between atoms: _208  and  _210
REMARK   84  A    between atoms: _210  and  _211
REMARK   85  A    between atoms: _210  and  _213
REMARK   86  A    between atoms: _213  and  _214
REMARK   87  A    between atoms: _219  and  _221
REMARK   88  A    between atoms: _221  and  _222
REMARK   89  A    between atoms: _221  and  _224
REMARK   90  A    between atoms: _224  and  _225
REMARK   91  A    between atoms: _228  and  _230
REMARK   92  A    between atoms: _230  and  _231
REMARK                            x       y       z     vdW  Elec       q    Type
REMARK                         _______ _______ _______ _____ _____    ______ ____
ROOT
ATOM      1  O   HOH     1      12.603  10.522 -12.828  0.00  0.00    +0.000 OA
ENDROOT
TORSDOF 0
REMARK  Name = ../refined-set-2016/4fzj/4fzj_pocket.pdb
REMARK  92 active torsions:
REMARK  status: ('A' for Active; 'I' for Inactive)
REMARK    1  A    between atoms: _1  and  _3
REMARK    2  A    between atoms: _3  and  _4
REMARK    3  A    between atoms: _3  and  _6
REMARK    4  A    between atoms: _6  and  _7
REMARK    5  A    between atoms: _7  and  _8
REMARK    6  A    between atoms: _12  and  _13
REMARK    7  A    between atoms: _18  and  _20
REMARK    8  A    between atoms: _20  and  _21
REMARK    9  A    between atoms: _20  and  _23
REMARK   10  A    between atoms: _23  and  _24
REMARK   11  A    between atoms: _27  and  _29
REMARK   12  A    between atoms: _29  and  _30
REMARK   13  A    between atoms: _29  and  _32
REMARK   14  A    between atoms: _32  and  _33
REMARK   15  A    between atoms: _33  and  _34
REMARK   16  A    between atoms: _34  and  _35
REMARK   17  A    between atoms: _44  and  _46
REMARK   18  A    between atoms: _46  and  _47
REMARK   19  A    between atoms: _46  and  _49
REMARK   20  A    between atoms: _49  and  _50
REMARK   21  A    between atoms: _50  and  _51
REMARK   22  A    between atoms: _54  and  _56
REMARK   23  A    between atoms: _56  and  _57
REMARK   24  A    between atoms: _60  and  _62
REMARK   25  A    between atoms: _62  and  _63
REMARK   26  A    between atoms: _62  and  _65
REMARK   27  A    between atoms: _65  and  _66
REMARK   28  A    between atoms: _69  and  _71
REMARK   29  A    between atoms: _71  and  _72
REMARK   30  A    between atoms: _74  and  _76
REMARK   31  A    between atoms: _76  and  _77
REMARK   32  A    between atoms: _76  and  _79
REMARK   33  A    between atoms: _79  and  _80
REMARK   34  A    between atoms: _83  and  _85
REMARK   35  A    between atoms: _85  and  _86
REMARK   36  A    between atoms: _89  and  _91
REMARK   37  A    between atoms: _91  and  _92
REMARK   38  A    between atoms: _91  and  _94
REMARK   39  A    between atoms: _97  and  _99
REMARK   40  A    between atoms: _99  and  _100
REMARK   41  A    between atoms: _99  and  _102
REMARK   42  A    between atoms: _102  and  _103
REMARK   43  A    between atoms: _106  and  _108
REMARK   44  A    between atoms: _108  and  _109
REMARK   45  A    between atoms: _108  and  _111
REMARK   46  A    between atoms: _111  and  _112
REMARK   47  A    between atoms: _114  and  _116
REMARK   48  A    between atoms: _116  and  _117
REMARK   49  A    between atoms: _120  and  _122
REMARK   50  A    between atoms: _122  and  _123
REMARK   51  A    between atoms: _126  and  _128
REMARK   52  A    between atoms: _128  and  _129
REMARK   53  A    between atoms: _128  and  _131
REMARK   54  A    between atoms: _131  and  _132
REMARK   55  A    between atoms: _135  and  _137
REMARK   56  A    between atoms: _137  and  _138
REMARK   57  A    between atoms: _137  and  _140
REMARK   58  A    between atoms: _140  and  _141
REMARK   59  A    between atoms: _144  and  _146
REMARK   60  A    between atoms: _146  and  _147
REMARK   61  A    between atoms: _150  and  _152
REMARK   62  A    between atoms: _152  and  _153
REMARK   63  A    between atoms: _156  and  _158
REMARK   64  A    between atoms: _158  and  _159
REMARK   65  A    between atoms: _162  and  _164
REMARK   66  A    between atoms: _164  and  _165
REMARK   67  A    between atoms: _164  and  _167
REMARK   68  A    between atoms: _167  and  _168
REMARK   69  A    between atoms: _173  and  _175
REMARK   70  A    between atoms: _175  and  _176
REMARK   71  A    between atoms: _175  and  _178
REMARK   72  A    between atoms: _178  and  _179
REMARK   73  A    between atoms: _179  and  _180
REMARK   74  A    between atoms: _180  and  _181
REMARK   75  A    between atoms: _190  and  _192
REMARK   76  A    between atoms: _192  and  _193
REMARK   77  A    between atoms: _192  and  _195
REMARK   78  A    between atoms: _195  and  _196
REMARK   79  A    between atoms: _199  and  _201
REMARK   80  A    between atoms: _201  and  _202
REMARK   81  A    between atoms: _201  and  _204
REMARK   82  A    between atoms: _204  and  _205
REMARK   83  A    between atoms: _208  and  _210
REMARK   84  A    between atoms: _210  and  _211
REMARK   85  A    between atoms: _210  and  _213
REMARK   86  A    between atoms: _213  and  _214
REMARK   87  A    between atoms: _219  and  _221
REMARK   88  A    between atoms: _221  and  _222
REMARK   89  A    between atoms: _221  and  _224
REMARK   90  A    between atoms: _224  and  _225
REMARK   91  A    between atoms: _228  and  _230
REMARK   92  A    between atoms: _230  and  _231
REMARK                            x       y       z     vdW  Elec       q    Type
REMARK                         _______ _______ _______ _____ _____    ______ ____
ROOT
ATOM      1  O   HOH     1      14.971   2.306  -9.750  0.00  0.00    +0.000 OA
ENDROOT
TORSDOF 0
REMARK  Name = ../refined-set-2016/4fzj/4fzj_pocket.pdb
REMARK  92 active torsions:
REMARK  status: ('A' for Active; 'I' for Inactive)
REMARK    1  A    between atoms: _1  and  _3
REMARK    2  A    between atoms: _3  and  _4
REMARK    3  A    between atoms: _3  and  _6
REMARK    4  A    between atoms: _6  and  _7
REMARK    5  A    between atoms: _7  and  _8
REMARK    6  A    between atoms: _12  and  _13
REMARK    7  A    between atoms: _18  and  _20
REMARK    8  A    between atoms: _20  and  _21
REMARK    9  A    between atoms: _20  and  _23
REMARK   10  A    between atoms: _23  and  _24
REMARK   11  A    between atoms: _27  and  _29
REMARK   12  A    between atoms: _29  and  _30
REMARK   13  A    between atoms: _29  and  _32
REMARK   14  A    between atoms: _32  and  _33
REMARK   15  A    between atoms: _33  and  _34
REMARK   16  A    between atoms: _34  and  _35
REMARK   17  A    between atoms: _44  and  _46
REMARK   18  A    between atoms: _46  and  _47
REMARK   19  A    between atoms: _46  and  _49
REMARK   20  A    between atoms: _49  and  _50
REMARK   21  A    between atoms: _50  and  _51
REMARK   22  A    between atoms: _54  and  _56
REMARK   23  A    between atoms: _56  and  _57
REMARK   24  A    between atoms: _60  and  _62
REMARK   25  A    between atoms: _62  and  _63
REMARK   26  A    between atoms: _62  and  _65
REMARK   27  A    between atoms: _65  and  _66
REMARK   28  A    between atoms: _69  and  _71
REMARK   29  A    between atoms: _71  and  _72
REMARK   30  A    between atoms: _74  and  _76
REMARK   31  A    between atoms: _76  and  _77
REMARK   32  A    between atoms: _76  and  _79
REMARK   33  A    between atoms: _79  and  _80
REMARK   34  A    between atoms: _83  and  _85
REMARK   35  A    between atoms: _85  and  _86
REMARK   36  A    between atoms: _89  and  _91
REMARK   37  A    between atoms: _91  and  _92
REMARK   38  A    between atoms: _91  and  _94
REMARK   39  A    between atoms: _97  and  _99
REMARK   40  A    between atoms: _99  and  _100
REMARK   41  A    between atoms: _99  and  _102
REMARK   42  A    between atoms: _102  and  _103
REMARK   43  A    between atoms: _106  and  _108
REMARK   44  A    between atoms: _108  and  _109
REMARK   45  A    between atoms: _108  and  _111
REMARK   46  A    between atoms: _111  and  _112
REMARK   47  A    between atoms: _114  and  _116
REMARK   48  A    between atoms: _116  and  _117
REMARK   49  A    between atoms: _120  and  _122
REMARK   50  A    between atoms: _122  and  _123
REMARK   51  A    between atoms: _126  and  _128
REMARK   52  A    between atoms: _128  and  _129
REMARK   53  A    between atoms: _128  and  _131
REMARK   54  A    between atoms: _131  and  _132
REMARK   55  A    between atoms: _135  and  _137
REMARK   56  A    between atoms: _137  and  _138
REMARK   57  A    between atoms: _137  and  _140
REMARK   58  A    between atoms: _140  and  _141
REMARK   59  A    between atoms: _144  and  _146
REMARK   60  A    between atoms: _146  and  _147
REMARK   61  A    between atoms: _150  and  _152
REMARK   62  A    between atoms: _152  and  _153
REMARK   63  A    between atoms: _156  and  _158
REMARK   64  A    between atoms: _158  and  _159
REMARK   65  A    between atoms: _162  and  _164
REMARK   66  A    between atoms: _164  and  _165
REMARK   67  A    between atoms: _164  and  _167
REMARK   68  A    between atoms: _167  and  _168
REMARK   69  A    between atoms: _173  and  _175
REMARK   70  A    between atoms: _175  and  _176
REMARK   71  A    between atoms: _175  and  _178
REMARK   72  A    between atoms: _178  and  _179
REMARK   73  A    between atoms: _179  and  _180
REMARK   74  A    between atoms: _180  and  _181
REMARK   75  A    between atoms: _190  and  _192
REMARK   76  A    between atoms: _192  and  _193
REMARK   77  A    between atoms: _192  and  _195
REMARK   78  A    between atoms: _195  and  _196
REMARK   79  A    between atoms: _199  and  _201
REMARK   80  A    between atoms: _201  and  _202
REMARK   81  A    between atoms: _201  and  _204
REMARK   82  A    between atoms: _204  and  _205
REMARK   83  A    between atoms: _208  and  _210
REMARK   84  A    between atoms: _210  and  _211
REMARK   85  A    between atoms: _210  and  _213
REMARK   86  A    between atoms: _213  and  _214
REMARK   87  A    between atoms: _219  and  _221
REMARK   88  A    between atoms: _221  and  _222
REMARK   89  A    between atoms: _221  and  _224
REMARK   90  A    between atoms: _224  and  _225
REMARK   91  A    between atoms: _228  and  _230
REMARK   92  A    between atoms: _230  and  _231
REMARK                            x       y       z     vdW  Elec       q    Type
REMARK                         _______ _______ _______ _____ _____    ______ ____
ROOT
ATOM      1  O   HOH     1      13.821  -2.475 -14.254  0.00  0.00    +0.000 OA
ENDROOT
TORSDOF 0
REMARK  Name = ../refined-set-2016/4fzj/4fzj_pocket.pdb
REMARK  92 active torsions:
REMARK  status: ('A' for Active; 'I' for Inactive)
REMARK    1  A    between atoms: _1  and  _3
REMARK    2  A    between atoms: _3  and  _4
REMARK    3  A    between atoms: _3  and  _6
REMARK    4  A    between atoms: _6  and  _7
REMARK    5  A    between atoms: _7  and  _8
REMARK    6  A    between atoms: _12  and  _13
REMARK    7  A    between atoms: _18  and  _20
REMARK    8  A    between atoms: _20  and  _21
REMARK    9  A    between atoms: _20  and  _23
REMARK   10  A    between atoms: _23  and  _24
REMARK   11  A    between atoms: _27  and  _29
REMARK   12  A    between atoms: _29  and  _30
REMARK   13  A    between atoms: _29  and  _32
REMARK   14  A    between atoms: _32  and  _33
REMARK   15  A    between atoms: _33  and  _34
REMARK   16  A    between atoms: _34  and  _35
REMARK   17  A    between atoms: _44  and  _46
REMARK   18  A    between atoms: _46  and  _47
REMARK   19  A    between atoms: _46  and  _49
REMARK   20  A    between atoms: _49  and  _50
REMARK   21  A    between atoms: _50  and  _51
REMARK   22  A    between atoms: _54  and  _56
REMARK   23  A    between atoms: _56  and  _57
REMARK   24  A    between atoms: _60  and  _62
REMARK   25  A    between atoms: _62  and  _63
REMARK   26  A    between atoms: _62  and  _65
REMARK   27  A    between atoms: _65  and  _66
REMARK   28  A    between atoms: _69  and  _71
REMARK   29  A    between atoms: _71  and  _72
REMARK   30  A    between atoms: _74  and  _76
REMARK   31  A    between atoms: _76  and  _77
REMARK   32  A    between atoms: _76  and  _79
REMARK   33  A    between atoms: _79  and  _80
REMARK   34  A    between atoms: _83  and  _85
REMARK   35  A    between atoms: _85  and  _86
REMARK   36  A    between atoms: _89  and  _91
REMARK   37  A    between atoms: _91  and  _92
REMARK   38  A    between atoms: _91  and  _94
REMARK   39  A    between atoms: _97  and  _99
REMARK   40  A    between atoms: _99  and  _100
REMARK   41  A    between atoms: _99  and  _102
REMARK   42  A    between atoms: _102  and  _103
REMARK   43  A    between atoms: _106  and  _108
REMARK   44  A    between atoms: _108  and  _109
REMARK   45  A    between atoms: _108  and  _111
REMARK   46  A    between atoms: _111  and  _112
REMARK   47  A    between atoms: _114  and  _116
REMARK   48  A    between atoms: _116  and  _117
REMARK   49  A    between atoms: _120  and  _122
REMARK   50  A    between atoms: _122  and  _123
REMARK   51  A    between atoms: _126  and  _128
REMARK   52  A    between atoms: _128  and  _129
REMARK   53  A    between atoms: _128  and  _131
REMARK   54  A    between atoms: _131  and  _132
REMARK   55  A    between atoms: _135  and  _137
REMARK   56  A    between atoms: _137  and  _138
REMARK   57  A    between atoms: _137  and  _140
REMARK   58  A    between atoms: _140  and  _141
REMARK   59  A    between atoms: _144  and  _146
REMARK   60  A    between atoms: _146  and  _147
REMARK   61  A    between atoms: _150  and  _152
REMARK   62  A    between atoms: _152  and  _153
REMARK   63  A    between atoms: _156  and  _158
REMARK   64  A    between atoms: _158  and  _159
REMARK   65  A    between atoms: _162  and  _164
REMARK   66  A    between atoms: _164  and  _165
REMARK   67  A    between atoms: _164  and  _167
REMARK   68  A    between atoms: _167  and  _168
REMARK   69  A    between atoms: _173  and  _175
REMARK   70  A    between atoms: _175  and  _176
REMARK   71  A    between atoms: _175  and  _178
REMARK   72  A    between atoms: _178  and  _179
REMARK   73  A    between atoms: _179  and  _180
REMARK   74  A    between atoms: _180  and  _181
REMARK   75  A    between atoms: _190  and  _192
REMARK   76  A    between atoms: _192  and  _193
REMARK   77  A    between atoms: _192  and  _195
REMARK   78  A    between atoms: _195  and  _196
REMARK   79  A    between atoms: _199  and  _201
REMARK   80  A    between atoms: _201  and  _202
REMARK   81  A    between atoms: _201  and  _204
REMARK   82  A    between atoms: _204  and  _205
REMARK   83  A    between atoms: _208  and  _210
REMARK   84  A    between atoms: _210  and  _211
REMARK   85  A    between atoms: _210  and  _213
REMARK   86  A    between atoms: _213  and  _214
REMARK   87  A    between atoms: _219  and  _221
REMARK   88  A    between atoms: _221  and  _222
REMARK   89  A    between atoms: _221  and  _224
REMARK   90  A    between atoms: _224  and  _225
REMARK   91  A    between atoms: _228  and  _230
REMARK   92  A    between atoms: _230  and  _231
REMARK                            x       y       z     vdW  Elec       q    Type
REMARK                         _______ _______ _______ _____ _____    ______ ____
ROOT
ATOM      1  O   HOH     1      12.736  -0.293 -13.399  0.00  0.00    +0.000 OA
ENDROOT
TORSDOF 0
REMARK  Name = ../refined-set-2016/4fzj/4fzj_pocket.pdb
REMARK  92 active torsions:
REMARK  status: ('A' for Active; 'I' for Inactive)
REMARK    1  A    between atoms: _1  and  _3
REMARK    2  A    between atoms: _3  and  _4
REMARK    3  A    between atoms: _3  and  _6
REMARK    4  A    between atoms: _6  and  _7
REMARK    5  A    between atoms: _7  and  _8
REMARK    6  A    between atoms: _12  and  _13
REMARK    7  A    between atoms: _18  and  _20
REMARK    8  A    between atoms: _20  and  _21
REMARK    9  A    between atoms: _20  and  _23
REMARK   10  A    between atoms: _23  and  _24
REMARK   11  A    between atoms: _27  and  _29
REMARK   12  A    between atoms: _29  and  _30
REMARK   13  A    between atoms: _29  and  _32
REMARK   14  A    between atoms: _32  and  _33
REMARK   15  A    between atoms: _33  and  _34
REMARK   16  A    between atoms: _34  and  _35
REMARK   17  A    between atoms: _44  and  _46
REMARK   18  A    between atoms: _46  and  _47
REMARK   19  A    between atoms: _46  and  _49
REMARK   20  A    between atoms: _49  and  _50
REMARK   21  A    between atoms: _50  and  _51
REMARK   22  A    between atoms: _54  and  _56
REMARK   23  A    between atoms: _56  and  _57
REMARK   24  A    between atoms: _60  and  _62
REMARK   25  A    between atoms: _62  and  _63
REMARK   26  A    between atoms: _62  and  _65
REMARK   27  A    between atoms: _65  and  _66
REMARK   28  A    between atoms: _69  and  _71
REMARK   29  A    between atoms: _71  and  _72
REMARK   30  A    between atoms: _74  and  _76
REMARK   31  A    between atoms: _76  and  _77
REMARK   32  A    between atoms: _76  and  _79
REMARK   33  A    between atoms: _79  and  _80
REMARK   34  A    between atoms: _83  and  _85
REMARK   35  A    between atoms: _85  and  _86
REMARK   36  A    between atoms: _89  and  _91
REMARK   37  A    between atoms: _91  and  _92
REMARK   38  A    between atoms: _91  and  _94
REMARK   39  A    between atoms: _97  and  _99
REMARK   40  A    between atoms: _99  and  _100
REMARK   41  A    between atoms: _99  and  _102
REMARK   42  A    between atoms: _102  and  _103
REMARK   43  A    between atoms: _106  and  _108
REMARK   44  A    between atoms: _108  and  _109
REMARK   45  A    between atoms: _108  and  _111
REMARK   46  A    between atoms: _111  and  _112
REMARK   47  A    between atoms: _114  and  _116
REMARK   48  A    between atoms: _116  and  _117
REMARK   49  A    between atoms: _120  and  _122
REMARK   50  A    between atoms: _122  and  _123
REMARK   51  A    between atoms: _126  and  _128
REMARK   52  A    between atoms: _128  and  _129
REMARK   53  A    between atoms: _128  and  _131
REMARK   54  A    between atoms: _131  and  _132
REMARK   55  A    between atoms: _135  and  _137
REMARK   56  A    between atoms: _137  and  _138
REMARK   57  A    between atoms: _137  and  _140
REMARK   58  A    between atoms: _140  and  _141
REMARK   59  A    between atoms: _144  and  _146
REMARK   60  A    between atoms: _146  and  _147
REMARK   61  A    between atoms: _150  and  _152
REMARK   62  A    between atoms: _152  and  _153
REMARK   63  A    between atoms: _156  and  _158
REMARK   64  A    between atoms: _158  and  _159
REMARK   65  A    between atoms: _162  and  _164
REMARK   66  A    between atoms: _164  and  _165
REMARK   67  A    between atoms: _164  and  _167
REMARK   68  A    between atoms: _167  and  _168
REMARK   69  A    between atoms: _173  and  _175
REMARK   70  A    between atoms: _175  and  _176
REMARK   71  A    between atoms: _175  and  _178
REMARK   72  A    between atoms: _178  and  _179
REMARK   73  A    between atoms: _179  and  _180
REMARK   74  A    between atoms: _180  and  _181
REMARK   75  A    between atoms: _190  and  _192
REMARK   76  A    between atoms: _192  and  _193
REMARK   77  A    between atoms: _192  and  _195
REMARK   78  A    between atoms: _195  and  _196
REMARK   79  A    between atoms: _199  and  _201
REMARK   80  A    between atoms: _201  and  _202
REMARK   81  A    between atoms: _201  and  _204
REMARK   82  A    between atoms: _204  and  _205
REMARK   83  A    between atoms: _208  and  _210
REMARK   84  A    between atoms: _210  and  _211
REMARK   85  A    between atoms: _210  and  _213
REMARK   86  A    between atoms: _213  and  _214
REMARK   87  A    between atoms: _219  and  _221
REMARK   88  A    between atoms: _221  and  _222
REMARK   89  A    between atoms: _221  and  _224
REMARK   90  A    between atoms: _224  and  _225
REMARK   91  A    between atoms: _228  and  _230
REMARK   92  A    between atoms: _230  and  _231
REMARK                            x       y       z     vdW  Elec       q    Type
REMARK                         _______ _______ _______ _____ _____    ______ ____
ROOT
ATOM      1  O   HOH     1      17.796   8.308 -18.417  0.00  0.00    +0.000 OA
ENDROOT
TORSDOF 0
REMARK  Name = ../refined-set-2016/4fzj/4fzj_pocket.pdb
REMARK  92 active torsions:
REMARK  status: ('A' for Active; 'I' for Inactive)
REMARK    1  A    between atoms: _1  and  _3
REMARK    2  A    between atoms: _3  and  _4
REMARK    3  A    between atoms: _3  and  _6
REMARK    4  A    between atoms: _6  and  _7
REMARK    5  A    between atoms: _7  and  _8
REMARK    6  A    between atoms: _12  and  _13
REMARK    7  A    between atoms: _18  and  _20
REMARK    8  A    between atoms: _20  and  _21
REMARK    9  A    between atoms: _20  and  _23
REMARK   10  A    between atoms: _23  and  _24
REMARK   11  A    between atoms: _27  and  _29
REMARK   12  A    between atoms: _29  and  _30
REMARK   13  A    between atoms: _29  and  _32
REMARK   14  A    between atoms: _32  and  _33
REMARK   15  A    between atoms: _33  and  _34
REMARK   16  A    between atoms: _34  and  _35
REMARK   17  A    between atoms: _44  and  _46
REMARK   18  A    between atoms: _46  and  _47
REMARK   19  A    between atoms: _46  and  _49
REMARK   20  A    between atoms: _49  and  _50
REMARK   21  A    between atoms: _50  and  _51
REMARK   22  A    between atoms: _54  and  _56
REMARK   23  A    between atoms: _56  and  _57
REMARK   24  A    between atoms: _60  and  _62
REMARK   25  A    between atoms: _62  and  _63
REMARK   26  A    between atoms: _62  and  _65
REMARK   27  A    between atoms: _65  and  _66
REMARK   28  A    between atoms: _69  and  _71
REMARK   29  A    between atoms: _71  and  _72
REMARK   30  A    between atoms: _74  and  _76
REMARK   31  A    between atoms: _76  and  _77
REMARK   32  A    between atoms: _76  and  _79
REMARK   33  A    between atoms: _79  and  _80
REMARK   34  A    between atoms: _83  and  _85
REMARK   35  A    between atoms: _85  and  _86
REMARK   36  A    between atoms: _89  and  _91
REMARK   37  A    between atoms: _91  and  _92
REMARK   38  A    between atoms: _91  and  _94
REMARK   39  A    between atoms: _97  and  _99
REMARK   40  A    between atoms: _99  and  _100
REMARK   41  A    between atoms: _99  and  _102
REMARK   42  A    between atoms: _102  and  _103
REMARK   43  A    between atoms: _106  and  _108
REMARK   44  A    between atoms: _108  and  _109
REMARK   45  A    between atoms: _108  and  _111
REMARK   46  A    between atoms: _111  and  _112
REMARK   47  A    between atoms: _114  and  _116
REMARK   48  A    between atoms: _116  and  _117
REMARK   49  A    between atoms: _120  and  _122
REMARK   50  A    between atoms: _122  and  _123
REMARK   51  A    between atoms: _126  and  _128
REMARK   52  A    between atoms: _128  and  _129
REMARK   53  A    between atoms: _128  and  _131
REMARK   54  A    between atoms: _131  and  _132
REMARK   55  A    between atoms: _135  and  _137
REMARK   56  A    between atoms: _137  and  _138
REMARK   57  A    between atoms: _137  and  _140
REMARK   58  A    between atoms: _140  and  _141
REMARK   59  A    between atoms: _144  and  _146
REMARK   60  A    between atoms: _146  and  _147
REMARK   61  A    between atoms: _150  and  _152
REMARK   62  A    between atoms: _152  and  _153
REMARK   63  A    between atoms: _156  and  _158
REMARK   64  A    between atoms: _158  and  _159
REMARK   65  A    between atoms: _162  and  _164
REMARK   66  A    between atoms: _164  and  _165
REMARK   67  A    between atoms: _164  and  _167
REMARK   68  A    between atoms: _167  and  _168
REMARK   69  A    between atoms: _173  and  _175
REMARK   70  A    between atoms: _175  and  _176
REMARK   71  A    between atoms: _175  and  _178
REMARK   72  A    between atoms: _178  and  _179
REMARK   73  A    between atoms: _179  and  _180
REMARK   74  A    between atoms: _180  and  _181
REMARK   75  A    between atoms: _190  and  _192
REMARK   76  A    between atoms: _192  and  _193
REMARK   77  A    between atoms: _192  and  _195
REMARK   78  A    between atoms: _195  and  _196
REMARK   79  A    between atoms: _199  and  _201
REMARK   80  A    between atoms: _201  and  _202
REMARK   81  A    between atoms: _201  and  _204
REMARK   82  A    between atoms: _204  and  _205
REMARK   83  A    between atoms: _208  and  _210
REMARK   84  A    between atoms: _210  and  _211
REMARK   85  A    between atoms: _210  and  _213
REMARK   86  A    between atoms: _213  and  _214
REMARK   87  A    between atoms: _219  and  _221
REMARK   88  A    between atoms: _221  and  _222
REMARK   89  A    between atoms: _221  and  _224
REMARK   90  A    between atoms: _224  and  _225
REMARK   91  A    between atoms: _228  and  _230
REMARK   92  A    between atoms: _230  and  _231
REMARK                            x       y       z     vdW  Elec       q    Type
REMARK                         _______ _______ _______ _____ _____    ______ ____
ROOT
ATOM      1  O   HOH     1      15.706   3.242  -7.243  0.00  0.00    +0.000 OA
ENDROOT
TORSDOF 0
REMARK  Name = ../refined-set-2016/4fzj/4fzj_pocket.pdb
REMARK  92 active torsions:
REMARK  status: ('A' for Active; 'I' for Inactive)
REMARK    1  A    between atoms: _1  and  _3
REMARK    2  A    between atoms: _3  and  _4
REMARK    3  A    between atoms: _3  and  _6
REMARK    4  A    between atoms: _6  and  _7
REMARK    5  A    between atoms: _7  and  _8
REMARK    6  A    between atoms: _12  and  _13
REMARK    7  A    between atoms: _18  and  _20
REMARK    8  A    between atoms: _20  and  _21
REMARK    9  A    between atoms: _20  and  _23
REMARK   10  A    between atoms: _23  and  _24
REMARK   11  A    between atoms: _27  and  _29
REMARK   12  A    between atoms: _29  and  _30
REMARK   13  A    between atoms: _29  and  _32
REMARK   14  A    between atoms: _32  and  _33
REMARK   15  A    between atoms: _33  and  _34
REMARK   16  A    between atoms: _34  and  _35
REMARK   17  A    between atoms: _44  and  _46
REMARK   18  A    between atoms: _46  and  _47
REMARK   19  A    between atoms: _46  and  _49
REMARK   20  A    between atoms: _49  and  _50
REMARK   21  A    between atoms: _50  and  _51
REMARK   22  A    between atoms: _54  and  _56
REMARK   23  A    between atoms: _56  and  _57
REMARK   24  A    between atoms: _60  and  _62
REMARK   25  A    between atoms: _62  and  _63
REMARK   26  A    between atoms: _62  and  _65
REMARK   27  A    between atoms: _65  and  _66
REMARK   28  A    between atoms: _69  and  _71
REMARK   29  A    between atoms: _71  and  _72
REMARK   30  A    between atoms: _74  and  _76
REMARK   31  A    between atoms: _76  and  _77
REMARK   32  A    between atoms: _76  and  _79
REMARK   33  A    between atoms: _79  and  _80
REMARK   34  A    between atoms: _83  and  _85
REMARK   35  A    between atoms: _85  and  _86
REMARK   36  A    between atoms: _89  and  _91
REMARK   37  A    between atoms: _91  and  _92
REMARK   38  A    between atoms: _91  and  _94
REMARK   39  A    between atoms: _97  and  _99
REMARK   40  A    between atoms: _99  and  _100
REMARK   41  A    between atoms: _99  and  _102
REMARK   42  A    between atoms: _102  and  _103
REMARK   43  A    between atoms: _106  and  _108
REMARK   44  A    between atoms: _108  and  _109
REMARK   45  A    between atoms: _108  and  _111
REMARK   46  A    between atoms: _111  and  _112
REMARK   47  A    between atoms: _114  and  _116
REMARK   48  A    between atoms: _116  and  _117
REMARK   49  A    between atoms: _120  and  _122
REMARK   50  A    between atoms: _122  and  _123
REMARK   51  A    between atoms: _126  and  _128
REMARK   52  A    between atoms: _128  and  _129
REMARK   53  A    between atoms: _128  and  _131
REMARK   54  A    between atoms: _131  and  _132
REMARK   55  A    between atoms: _135  and  _137
REMARK   56  A    between atoms: _137  and  _138
REMARK   57  A    between atoms: _137  and  _140
REMARK   58  A    between atoms: _140  and  _141
REMARK   59  A    between atoms: _144  and  _146
REMARK   60  A    between atoms: _146  and  _147
REMARK   61  A    between atoms: _150  and  _152
REMARK   62  A    between atoms: _152  and  _153
REMARK   63  A    between atoms: _156  and  _158
REMARK   64  A    between atoms: _158  and  _159
REMARK   65  A    between atoms: _162  and  _164
REMARK   66  A    between atoms: _164  and  _165
REMARK   67  A    between atoms: _164  and  _167
REMARK   68  A    between atoms: _167  and  _168
REMARK   69  A    between atoms: _173  and  _175
REMARK   70  A    between atoms: _175  and  _176
REMARK   71  A    between atoms: _175  and  _178
REMARK   72  A    between atoms: _178  and  _179
REMARK   73  A    between atoms: _179  and  _180
REMARK   74  A    between atoms: _180  and  _181
REMARK   75  A    between atoms: _190  and  _192
REMARK   76  A    between atoms: _192  and  _193
REMARK   77  A    between atoms: _192  and  _195
REMARK   78  A    between atoms: _195  and  _196
REMARK   79  A    between atoms: _199  and  _201
REMARK   80  A    between atoms: _201  and  _202
REMARK   81  A    between atoms: _201  and  _204
REMARK   82  A    between atoms: _204  and  _205
REMARK   83  A    between atoms: _208  and  _210
REMARK   84  A    between atoms: _210  and  _211
REMARK   85  A    between atoms: _210  and  _213
REMARK   86  A    between atoms: _213  and  _214
REMARK   87  A    between atoms: _219  and  _221
REMARK   88  A    between atoms: _221  and  _222
REMARK   89  A    between atoms: _221  and  _224
REMARK   90  A    between atoms: _224  and  _225
REMARK   91  A    between atoms: _228  and  _230
REMARK   92  A    between atoms: _230  and  _231
REMARK                            x       y       z     vdW  Elec       q    Type
REMARK                         _______ _______ _______ _____ _____    ______ ____
ROOT
ATOM      1  O   HOH     1      11.083  -4.047 -13.861  0.00  0.00    +0.000 OA
ENDROOT
TORSDOF 0
REMARK  Name = ../refined-set-2016/4fzj/4fzj_pocket.pdb
REMARK  92 active torsions:
REMARK  status: ('A' for Active; 'I' for Inactive)
REMARK    1  A    between atoms: _1  and  _3
REMARK    2  A    between atoms: _3  and  _4
REMARK    3  A    between atoms: _3  and  _6
REMARK    4  A    between atoms: _6  and  _7
REMARK    5  A    between atoms: _7  and  _8
REMARK    6  A    between atoms: _12  and  _13
REMARK    7  A    between atoms: _18  and  _20
REMARK    8  A    between atoms: _20  and  _21
REMARK    9  A    between atoms: _20  and  _23
REMARK   10  A    between atoms: _23  and  _24
REMARK   11  A    between atoms: _27  and  _29
REMARK   12  A    between atoms: _29  and  _30
REMARK   13  A    between atoms: _29  and  _32
REMARK   14  A    between atoms: _32  and  _33
REMARK   15  A    between atoms: _33  and  _34
REMARK   16  A    between atoms: _34  and  _35
REMARK   17  A    between atoms: _44  and  _46
REMARK   18  A    between atoms: _46  and  _47
REMARK   19  A    between atoms: _46  and  _49
REMARK   20  A    between atoms: _49  and  _50
REMARK   21  A    between atoms: _50  and  _51
REMARK   22  A    between atoms: _54  and  _56
REMARK   23  A    between atoms: _56  and  _57
REMARK   24  A    between atoms: _60  and  _62
REMARK   25  A    between atoms: _62  and  _63
REMARK   26  A    between atoms: _62  and  _65
REMARK   27  A    between atoms: _65  and  _66
REMARK   28  A    between atoms: _69  and  _71
REMARK   29  A    between atoms: _71  and  _72
REMARK   30  A    between atoms: _74  and  _76
REMARK   31  A    between atoms: _76  and  _77
REMARK   32  A    between atoms: _76  and  _79
REMARK   33  A    between atoms: _79  and  _80
REMARK   34  A    between atoms: _83  and  _85
REMARK   35  A    between atoms: _85  and  _86
REMARK   36  A    between atoms: _89  and  _91
REMARK   37  A    between atoms: _91  and  _92
REMARK   38  A    between atoms: _91  and  _94
REMARK   39  A    between atoms: _97  and  _99
REMARK   40  A    between atoms: _99  and  _100
REMARK   41  A    between atoms: _99  and  _102
REMARK   42  A    between atoms: _102  and  _103
REMARK   43  A    between atoms: _106  and  _108
REMARK   44  A    between atoms: _108  and  _109
REMARK   45  A    between atoms: _108  and  _111
REMARK   46  A    between atoms: _111  and  _112
REMARK   47  A    between atoms: _114  and  _116
REMARK   48  A    between atoms: _116  and  _117
REMARK   49  A    between atoms: _120  and  _122
REMARK   50  A    between atoms: _122  and  _123
REMARK   51  A    between atoms: _126  and  _128
REMARK   52  A    between atoms: _128  and  _129
REMARK   53  A    between atoms: _128  and  _131
REMARK   54  A    between atoms: _131  and  _132
REMARK   55  A    between atoms: _135  and  _137
REMARK   56  A    between atoms: _137  and  _138
REMARK   57  A    between atoms: _137  and  _140
REMARK   58  A    between atoms: _140  and  _141
REMARK   59  A    between atoms: _144  and  _146
REMARK   60  A    between atoms: _146  and  _147
REMARK   61  A    between atoms: _150  and  _152
REMARK   62  A    between atoms: _152  and  _153
REMARK   63  A    between atoms: _156  and  _158
REMARK   64  A    between atoms: _158  and  _159
REMARK   65  A    between atoms: _162  and  _164
REMARK   66  A    between atoms: _164  and  _165
REMARK   67  A    between atoms: _164  and  _167
REMARK   68  A    between atoms: _167  and  _168
REMARK   69  A    between atoms: _173  and  _175
REMARK   70  A    between atoms: _175  and  _176
REMARK   71  A    between atoms: _175  and  _178
REMARK   72  A    between atoms: _178  and  _179
REMARK   73  A    between atoms: _179  and  _180
REMARK   74  A    between atoms: _180  and  _181
REMARK   75  A    between atoms: _190  and  _192
REMARK   76  A    between atoms: _192  and  _193
REMARK   77  A    between atoms: _192  and  _195
REMARK   78  A    between atoms: _195  and  _196
REMARK   79  A    between atoms: _199  and  _201
REMARK   80  A    between atoms: _201  and  _202
REMARK   81  A    between atoms: _201  and  _204
REMARK   82  A    between atoms: _204  and  _205
REMARK   83  A    between atoms: _208  and  _210
REMARK   84  A    between atoms: _210  and  _211
REMARK   85  A    between atoms: _210  and  _213
REMARK   86  A    between atoms: _213  and  _214
REMARK   87  A    between atoms: _219  and  _221
REMARK   88  A    between atoms: _221  and  _222
REMARK   89  A    between atoms: _221  and  _224
REMARK   90  A    between atoms: _224  and  _225
REMARK   91  A    between atoms: _228  and  _230
REMARK   92  A    between atoms: _230  and  _231
REMARK                            x       y       z     vdW  Elec       q    Type
REMARK                         _______ _______ _______ _____ _____    ______ ____
ROOT
ATOM      1  O   HOH     1      15.544  10.547 -16.282  0.00  0.00    +0.000 OA
ENDROOT
TORSDOF 0
REMARK  Name = ../refined-set-2016/4fzj/4fzj_pocket.pdb
REMARK  92 active torsions:
REMARK  status: ('A' for Active; 'I' for Inactive)
REMARK    1  A    between atoms: _1  and  _3
REMARK    2  A    between atoms: _3  and  _4
REMARK    3  A    between atoms: _3  and  _6
REMARK    4  A    between atoms: _6  and  _7
REMARK    5  A    between atoms: _7  and  _8
REMARK    6  A    between atoms: _12  and  _13
REMARK    7  A    between atoms: _18  and  _20
REMARK    8  A    between atoms: _20  and  _21
REMARK    9  A    between atoms: _20  and  _23
REMARK   10  A    between atoms: _23  and  _24
REMARK   11  A    between atoms: _27  and  _29
REMARK   12  A    between atoms: _29  and  _30
REMARK   13  A    between atoms: _29  and  _32
REMARK   14  A    between atoms: _32  and  _33
REMARK   15  A    between atoms: _33  and  _34
REMARK   16  A    between atoms: _34  and  _35
REMARK   17  A    between atoms: _44  and  _46
REMARK   18  A    between atoms: _46  and  _47
REMARK   19  A    between atoms: _46  and  _49
REMARK   20  A    between atoms: _49  and  _50
REMARK   21  A    between atoms: _50  and  _51
REMARK   22  A    between atoms: _54  and  _56
REMARK   23  A    between atoms: _56  and  _57
REMARK   24  A    between atoms: _60  and  _62
REMARK   25  A    between atoms: _62  and  _63
REMARK   26  A    between atoms: _62  and  _65
REMARK   27  A    between atoms: _65  and  _66
REMARK   28  A    between atoms: _69  and  _71
REMARK   29  A    between atoms: _71  and  _72
REMARK   30  A    between atoms: _74  and  _76
REMARK   31  A    between atoms: _76  and  _77
REMARK   32  A    between atoms: _76  and  _79
REMARK   33  A    between atoms: _79  and  _80
REMARK   34  A    between atoms: _83  and  _85
REMARK   35  A    between atoms: _85  and  _86
REMARK   36  A    between atoms: _89  and  _91
REMARK   37  A    between atoms: _91  and  _92
REMARK   38  A    between atoms: _91  and  _94
REMARK   39  A    between atoms: _97  and  _99
REMARK   40  A    between atoms: _99  and  _100
REMARK   41  A    between atoms: _99  and  _102
REMARK   42  A    between atoms: _102  and  _103
REMARK   43  A    between atoms: _106  and  _108
REMARK   44  A    between atoms: _108  and  _109
REMARK   45  A    between atoms: _108  and  _111
REMARK   46  A    between atoms: _111  and  _112
REMARK   47  A    between atoms: _114  and  _116
REMARK   48  A    between atoms: _116  and  _117
REMARK   49  A    between atoms: _120  and  _122
REMARK   50  A    between atoms: _122  and  _123
REMARK   51  A    between atoms: _126  and  _128
REMARK   52  A    between atoms: _128  and  _129
REMARK   53  A    between atoms: _128  and  _131
REMARK   54  A    between atoms: _131  and  _132
REMARK   55  A    between atoms: _135  and  _137
REMARK   56  A    between atoms: _137  and  _138
REMARK   57  A    between atoms: _137  and  _140
REMARK   58  A    between atoms: _140  and  _141
REMARK   59  A    between atoms: _144  and  _146
REMARK   60  A    between atoms: _146  and  _147
REMARK   61  A    between atoms: _150  and  _152
REMARK   62  A    between atoms: _152  and  _153
REMARK   63  A    between atoms: _156  and  _158
REMARK   64  A    between atoms: _158  and  _159
REMARK   65  A    between atoms: _162  and  _164
REMARK   66  A    between atoms: _164  and  _165
REMARK   67  A    between atoms: _164  and  _167
REMARK   68  A    between atoms: _167  and  _168
REMARK   69  A    between atoms: _173  and  _175
REMARK   70  A    between atoms: _175  and  _176
REMARK   71  A    between atoms: _175  and  _178
REMARK   72  A    between atoms: _178  and  _179
REMARK   73  A    between atoms: _179  and  _180
REMARK   74  A    between atoms: _180  and  _181
REMARK   75  A    between atoms: _190  and  _192
REMARK   76  A    between atoms: _192  and  _193
REMARK   77  A    between atoms: _192  and  _195
REMARK   78  A    between atoms: _195  and  _196
REMARK   79  A    between atoms: _199  and  _201
REMARK   80  A    between atoms: _201  and  _202
REMARK   81  A    between atoms: _201  and  _204
REMARK   82  A    between atoms: _204  and  _205
REMARK   83  A    between atoms: _208  and  _210
REMARK   84  A    between atoms: _210  and  _211
REMARK   85  A    between atoms: _210  and  _213
REMARK   86  A    between atoms: _213  and  _214
REMARK   87  A    between atoms: _219  and  _221
REMARK   88  A    between atoms: _221  and  _222
REMARK   89  A    between atoms: _221  and  _224
REMARK   90  A    between atoms: _224  and  _225
REMARK   91  A    between atoms: _228  and  _230
REMARK   92  A    between atoms: _230  and  _231
REMARK                            x       y       z     vdW  Elec       q    Type
REMARK                         _______ _______ _______ _____ _____    ______ ____
ROOT
ATOM      1  O   HOH     1      15.004   0.691 -17.502  0.00  0.00    +0.000 OA
ENDROOT
TORSDOF 0
REMARK  Name = ../refined-set-2016/4fzj/4fzj_pocket.pdb
REMARK  92 active torsions:
REMARK  status: ('A' for Active; 'I' for Inactive)
REMARK    1  A    between atoms: _1  and  _3
REMARK    2  A    between atoms: _3  and  _4
REMARK    3  A    between atoms: _3  and  _6
REMARK    4  A    between atoms: _6  and  _7
REMARK    5  A    between atoms: _7  and  _8
REMARK    6  A    between atoms: _12  and  _13
REMARK    7  A    between atoms: _18  and  _20
REMARK    8  A    between atoms: _20  and  _21
REMARK    9  A    between atoms: _20  and  _23
REMARK   10  A    between atoms: _23  and  _24
REMARK   11  A    between atoms: _27  and  _29
REMARK   12  A    between atoms: _29  and  _30
REMARK   13  A    between atoms: _29  and  _32
REMARK   14  A    between atoms: _32  and  _33
REMARK   15  A    between atoms: _33  and  _34
REMARK   16  A    between atoms: _34  and  _35
REMARK   17  A    between atoms: _44  and  _46
REMARK   18  A    between atoms: _46  and  _47
REMARK   19  A    between atoms: _46  and  _49
REMARK   20  A    between atoms: _49  and  _50
REMARK   21  A    between atoms: _50  and  _51
REMARK   22  A    between atoms: _54  and  _56
REMARK   23  A    between atoms: _56  and  _57
REMARK   24  A    between atoms: _60  and  _62
REMARK   25  A    between atoms: _62  and  _63
REMARK   26  A    between atoms: _62  and  _65
REMARK   27  A    between atoms: _65  and  _66
REMARK   28  A    between atoms: _69  and  _71
REMARK   29  A    between atoms: _71  and  _72
REMARK   30  A    between atoms: _74  and  _76
REMARK   31  A    between atoms: _76  and  _77
REMARK   32  A    between atoms: _76  and  _79
REMARK   33  A    between atoms: _79  and  _80
REMARK   34  A    between atoms: _83  and  _85
REMARK   35  A    between atoms: _85  and  _86
REMARK   36  A    between atoms: _89  and  _91
REMARK   37  A    between atoms: _91  and  _92
REMARK   38  A    between atoms: _91  and  _94
REMARK   39  A    between atoms: _97  and  _99
REMARK   40  A    between atoms: _99  and  _100
REMARK   41  A    between atoms: _99  and  _102
REMARK   42  A    between atoms: _102  and  _103
REMARK   43  A    between atoms: _106  and  _108
REMARK   44  A    between atoms: _108  and  _109
REMARK   45  A    between atoms: _108  and  _111
REMARK   46  A    between atoms: _111  and  _112
REMARK   47  A    between atoms: _114  and  _116
REMARK   48  A    between atoms: _116  and  _117
REMARK   49  A    between atoms: _120  and  _122
REMARK   50  A    between atoms: _122  and  _123
REMARK   51  A    between atoms: _126  and  _128
REMARK   52  A    between atoms: _128  and  _129
REMARK   53  A    between atoms: _128  and  _131
REMARK   54  A    between atoms: _131  and  _132
REMARK   55  A    between atoms: _135  and  _137
REMARK   56  A    between atoms: _137  and  _138
REMARK   57  A    between atoms: _137  and  _140
REMARK   58  A    between atoms: _140  and  _141
REMARK   59  A    between atoms: _144  and  _146
REMARK   60  A    between atoms: _146  and  _147
REMARK   61  A    between atoms: _150  and  _152
REMARK   62  A    between atoms: _152  and  _153
REMARK   63  A    between atoms: _156  and  _158
REMARK   64  A    between atoms: _158  and  _159
REMARK   65  A    between atoms: _162  and  _164
REMARK   66  A    between atoms: _164  and  _165
REMARK   67  A    between atoms: _164  and  _167
REMARK   68  A    between atoms: _167  and  _168
REMARK   69  A    between atoms: _173  and  _175
REMARK   70  A    between atoms: _175  and  _176
REMARK   71  A    between atoms: _175  and  _178
REMARK   72  A    between atoms: _178  and  _179
REMARK   73  A    between atoms: _179  and  _180
REMARK   74  A    between atoms: _180  and  _181
REMARK   75  A    between atoms: _190  and  _192
REMARK   76  A    between atoms: _192  and  _193
REMARK   77  A    between atoms: _192  and  _195
REMARK   78  A    between atoms: _195  and  _196
REMARK   79  A    between atoms: _199  and  _201
REMARK   80  A    between atoms: _201  and  _202
REMARK   81  A    between atoms: _201  and  _204
REMARK   82  A    between atoms: _204  and  _205
REMARK   83  A    between atoms: _208  and  _210
REMARK   84  A    between atoms: _210  and  _211
REMARK   85  A    between atoms: _210  and  _213
REMARK   86  A    between atoms: _213  and  _214
REMARK   87  A    between atoms: _219  and  _221
REMARK   88  A    between atoms: _221  and  _222
REMARK   89  A    between atoms: _221  and  _224
REMARK   90  A    between atoms: _224  and  _225
REMARK   91  A    between atoms: _228  and  _230
REMARK   92  A    between atoms: _230  and  _231
REMARK                            x       y       z     vdW  Elec       q    Type
REMARK                         _______ _______ _______ _____ _____    ______ ____
ROOT
ATOM      1  O   HOH     1      13.055   6.998 -13.942  0.00  0.00    +0.000 OA
ENDROOT
TORSDOF 0
REMARK  Name = ../refined-set-2016/4fzj/4fzj_pocket.pdb
REMARK  92 active torsions:
REMARK  status: ('A' for Active; 'I' for Inactive)
REMARK    1  A    between atoms: _1  and  _3
REMARK    2  A    between atoms: _3  and  _4
REMARK    3  A    between atoms: _3  and  _6
REMARK    4  A    between atoms: _6  and  _7
REMARK    5  A    between atoms: _7  and  _8
REMARK    6  A    between atoms: _12  and  _13
REMARK    7  A    between atoms: _18  and  _20
REMARK    8  A    between atoms: _20  and  _21
REMARK    9  A    between atoms: _20  and  _23
REMARK   10  A    between atoms: _23  and  _24
REMARK   11  A    between atoms: _27  and  _29
REMARK   12  A    between atoms: _29  and  _30
REMARK   13  A    between atoms: _29  and  _32
REMARK   14  A    between atoms: _32  and  _33
REMARK   15  A    between atoms: _33  and  _34
REMARK   16  A    between atoms: _34  and  _35
REMARK   17  A    between atoms: _44  and  _46
REMARK   18  A    between atoms: _46  and  _47
REMARK   19  A    between atoms: _46  and  _49
REMARK   20  A    between atoms: _49  and  _50
REMARK   21  A    between atoms: _50  and  _51
REMARK   22  A    between atoms: _54  and  _56
REMARK   23  A    between atoms: _56  and  _57
REMARK   24  A    between atoms: _60  and  _62
REMARK   25  A    between atoms: _62  and  _63
REMARK   26  A    between atoms: _62  and  _65
REMARK   27  A    between atoms: _65  and  _66
REMARK   28  A    between atoms: _69  and  _71
REMARK   29  A    between atoms: _71  and  _72
REMARK   30  A    between atoms: _74  and  _76
REMARK   31  A    between atoms: _76  and  _77
REMARK   32  A    between atoms: _76  and  _79
REMARK   33  A    between atoms: _79  and  _80
REMARK   34  A    between atoms: _83  and  _85
REMARK   35  A    between atoms: _85  and  _86
REMARK   36  A    between atoms: _89  and  _91
REMARK   37  A    between atoms: _91  and  _92
REMARK   38  A    between atoms: _91  and  _94
REMARK   39  A    between atoms: _97  and  _99
REMARK   40  A    between atoms: _99  and  _100
REMARK   41  A    between atoms: _99  and  _102
REMARK   42  A    between atoms: _102  and  _103
REMARK   43  A    between atoms: _106  and  _108
REMARK   44  A    between atoms: _108  and  _109
REMARK   45  A    between atoms: _108  and  _111
REMARK   46  A    between atoms: _111  and  _112
REMARK   47  A    between atoms: _114  and  _116
REMARK   48  A    between atoms: _116  and  _117
REMARK   49  A    between atoms: _120  and  _122
REMARK   50  A    between atoms: _122  and  _123
REMARK   51  A    between atoms: _126  and  _128
REMARK   52  A    between atoms: _128  and  _129
REMARK   53  A    between atoms: _128  and  _131
REMARK   54  A    between atoms: _131  and  _132
REMARK   55  A    between atoms: _135  and  _137
REMARK   56  A    between atoms: _137  and  _138
REMARK   57  A    between atoms: _137  and  _140
REMARK   58  A    between atoms: _140  and  _141
REMARK   59  A    between atoms: _144  and  _146
REMARK   60  A    between atoms: _146  and  _147
REMARK   61  A    between atoms: _150  and  _152
REMARK   62  A    between atoms: _152  and  _153
REMARK   63  A    between atoms: _156  and  _158
REMARK   64  A    between atoms: _158  and  _159
REMARK   65  A    between atoms: _162  and  _164
REMARK   66  A    between atoms: _164  and  _165
REMARK   67  A    between atoms: _164  and  _167
REMARK   68  A    between atoms: _167  and  _168
REMARK   69  A    between atoms: _173  and  _175
REMARK   70  A    between atoms: _175  and  _176
REMARK   71  A    between atoms: _175  and  _178
REMARK   72  A    between atoms: _178  and  _179
REMARK   73  A    between atoms: _179  and  _180
REMARK   74  A    between atoms: _180  and  _181
REMARK   75  A    between atoms: _190  and  _192
REMARK   76  A    between atoms: _192  and  _193
REMARK   77  A    between atoms: _192  and  _195
REMARK   78  A    between atoms: _195  and  _196
REMARK   79  A    between atoms: _199  and  _201
REMARK   80  A    between atoms: _201  and  _202
REMARK   81  A    between atoms: _201  and  _204
REMARK   82  A    between atoms: _204  and  _205
REMARK   83  A    between atoms: _208  and  _210
REMARK   84  A    between atoms: _210  and  _211
REMARK   85  A    between atoms: _210  and  _213
REMARK   86  A    between atoms: _213  and  _214
REMARK   87  A    between atoms: _219  and  _221
REMARK   88  A    between atoms: _221  and  _222
REMARK   89  A    between atoms: _221  and  _224
REMARK   90  A    between atoms: _224  and  _225
REMARK   91  A    between atoms: _228  and  _230
REMARK   92  A    between atoms: _230  and  _231
REMARK                            x       y       z     vdW  Elec       q    Type
REMARK                         _______ _______ _______ _____ _____    ______ ____
ROOT
ATOM      1  O   HOH     1      11.970   3.596 -11.241  0.00  0.00    +0.000 OA
ENDROOT
TORSDOF 0
