REMARK  Name = ../refined-set-2016/3tmk/3tmk_pocket.pdb
REMARK  319 active torsions:
REMARK  status: ('A' for Active; 'I' for Inactive)
REMARK    1  A    between atoms: _1  and  _3
REMARK    2  A    between atoms: _3  and  _4
REMARK    3  A    between atoms: _3  and  _6
REMARK    4  A    between atoms: _6  and  _7
REMARK    5  A    between atoms: _10  and  _12
REMARK    6  A    between atoms: _12  and  _13
REMARK    7  A    between atoms: _12  and  _15
REMARK    8  A    between atoms: _15  and  _16
REMARK    9  A    between atoms: _16  and  _17
REMARK   10  A    between atoms: _20  and  _22
REMARK   11  A    between atoms: _22  and  _23
REMARK   12  A    between atoms: _25  and  _27
REMARK   13  A    between atoms: _27  and  _28
REMARK   14  A    between atoms: _27  and  _30
REMARK   15  A    between atoms: _30  and  _31
REMARK   16  A    between atoms: _34  and  _36
REMARK   17  A    between atoms: _36  and  _37
REMARK   18  A    between atoms: _36  and  _39
REMARK   19  A    between atoms: _39  and  _40
REMARK   20  A    between atoms: _43  and  _45
REMARK   21  A    between atoms: _45  and  _46
REMARK   22  A    between atoms: _45  and  _48
REMARK   23  A    between atoms: _48  and  _49
REMARK   24  A    between atoms: _49  and  _50
REMARK   25  A    between atoms: _50  and  _51
REMARK   26  A    between atoms: _60  and  _62
REMARK   27  A    between atoms: _62  and  _63
REMARK   28  A    between atoms: _62  and  _65
REMARK   29  A    between atoms: _65  and  _66
REMARK   30  A    between atoms: _69  and  _71
REMARK   31  A    between atoms: _71  and  _72
REMARK   32  A    between atoms: _74  and  _76
REMARK   33  A    between atoms: _76  and  _77
REMARK   34  A    between atoms: _76  and  _79
REMARK   35  A    between atoms: _79  and  _80
REMARK   36  A    between atoms: _80  and  _81
REMARK   37  A    between atoms: _81  and  _82
REMARK   38  A    between atoms: _82  and  _83
REMARK   39  A    between atoms: _87  and  _89
REMARK   40  A    between atoms: _89  and  _90
REMARK   41  A    between atoms: _89  and  _92
REMARK   42  A    between atoms: _92  and  _93
REMARK   43  A    between atoms: _96  and  _98
REMARK   44  A    between atoms: _98  and  _99
REMARK   45  A    between atoms: _98  and  _101
REMARK   46  A    between atoms: _101  and  _102
REMARK   47  A    between atoms: _105  and  _107
REMARK   48  A    between atoms: _107  and  _108
REMARK   49  A    between atoms: _107  and  _110
REMARK   50  A    between atoms: _110  and  _111
REMARK   51  A    between atoms: _111  and  _112
REMARK   52  A    between atoms: _117  and  _119
REMARK   53  A    between atoms: _119  and  _120
REMARK   54  A    between atoms: _119  and  _122
REMARK   55  A    between atoms: _124  and  _126
REMARK   56  A    between atoms: _126  and  _127
REMARK   57  A    between atoms: _126  and  _129
REMARK   58  A    between atoms: _129  and  _130
REMARK   59  A    between atoms: _135  and  _137
REMARK   60  A    between atoms: _137  and  _138
REMARK   61  A    between atoms: _137  and  _140
REMARK   62  A    between atoms: _140  and  _141
REMARK   63  A    between atoms: _144  and  _146
REMARK   64  A    between atoms: _146  and  _147
REMARK   65  A    between atoms: _146  and  _149
REMARK   66  A    between atoms: _149  and  _150
REMARK   67  A    between atoms: _150  and  _151
REMARK   68  A    between atoms: _151  and  _152
REMARK   69  A    between atoms: _152  and  _153
REMARK   70  A    between atoms: _157  and  _159
REMARK   71  A    between atoms: _159  and  _160
REMARK   72  A    between atoms: _159  and  _162
REMARK   73  A    between atoms: _162  and  _163
REMARK   74  A    between atoms: _170  and  _171
REMARK   75  A    between atoms: _176  and  _178
REMARK   76  A    between atoms: _178  and  _179
REMARK   77  A    between atoms: _178  and  _181
REMARK   78  A    between atoms: _181  and  _182
REMARK   79  A    between atoms: _182  and  _183
REMARK   80  A    between atoms: _186  and  _188
REMARK   81  A    between atoms: _188  and  _189
REMARK   82  A    between atoms: _188  and  _191
REMARK   83  A    between atoms: _191  and  _192
REMARK   84  A    between atoms: _192  and  _193
REMARK   85  A    between atoms: _193  and  _194
REMARK   86  A    between atoms: _203  and  _205
REMARK   87  A    between atoms: _205  and  _206
REMARK   88  A    between atoms: _205  and  _208
REMARK   89  A    between atoms: _208  and  _209
REMARK   90  A    between atoms: _212  and  _214
REMARK   91  A    between atoms: _214  and  _215
REMARK   92  A    between atoms: _214  and  _217
REMARK   93  A    between atoms: _217  and  _218
REMARK   94  A    between atoms: _223  and  _225
REMARK   95  A    between atoms: _225  and  _226
REMARK   96  A    between atoms: _225  and  _228
REMARK   97  A    between atoms: _228  and  _229
REMARK   98  A    between atoms: _234  and  _235
REMARK   99  A    between atoms: _237  and  _239
REMARK  100  A    between atoms: _239  and  _240
REMARK  101  A    between atoms: _239  and  _242
REMARK  102  A    between atoms: _242  and  _243
REMARK  103  A    between atoms: _246  and  _248
REMARK  104  A    between atoms: _248  and  _249
REMARK  105  A    between atoms: _248  and  _251
REMARK  106  A    between atoms: _251  and  _252
REMARK  107  A    between atoms: _255  and  _257
REMARK  108  A    between atoms: _257  and  _258
REMARK  109  A    between atoms: _257  and  _260
REMARK  110  A    between atoms: _260  and  _261
REMARK  111  A    between atoms: _264  and  _266
REMARK  112  A    between atoms: _266  and  _267
REMARK  113  A    between atoms: _266  and  _269
REMARK  114  A    between atoms: _269  and  _270
REMARK  115  A    between atoms: _275  and  _277
REMARK  116  A    between atoms: _277  and  _278
REMARK  117  A    between atoms: _277  and  _280
REMARK  118  A    between atoms: _280  and  _281
REMARK  119  A    between atoms: _284  and  _286
REMARK  120  A    between atoms: _286  and  _287
REMARK  121  A    between atoms: _286  and  _289
REMARK  122  A    between atoms: _289  and  _290
REMARK  123  A    between atoms: _296  and  _298
REMARK  124  A    between atoms: _298  and  _299
REMARK  125  A    between atoms: _298  and  _301
REMARK  126  A    between atoms: _301  and  _302
REMARK  127  A    between atoms: _304  and  _306
REMARK  128  A    between atoms: _306  and  _307
REMARK  129  A    between atoms: _310  and  _312
REMARK  130  A    between atoms: _312  and  _313
REMARK  131  A    between atoms: _312  and  _315
REMARK  132  A    between atoms: _315  and  _316
REMARK  133  A    between atoms: _321  and  _323
REMARK  134  A    between atoms: _323  and  _324
REMARK  135  A    between atoms: _323  and  _326
REMARK  136  A    between atoms: _326  and  _327
REMARK  137  A    between atoms: _327  and  _328
REMARK  138  A    between atoms: _328  and  _329
REMARK  139  A    between atoms: _338  and  _340
REMARK  140  A    between atoms: _340  and  _341
REMARK  141  A    between atoms: _340  and  _343
REMARK  142  A    between atoms: _343  and  _344
REMARK  143  A    between atoms: _347  and  _349
REMARK  144  A    between atoms: _349  and  _350
REMARK  145  A    between atoms: _349  and  _352
REMARK  146  A    between atoms: _352  and  _353
REMARK  147  A    between atoms: _353  and  _354
REMARK  148  A    between atoms: _354  and  _355
REMARK  149  A    between atoms: _364  and  _366
REMARK  150  A    between atoms: _366  and  _367
REMARK  151  A    between atoms: _366  and  _369
REMARK  152  A    between atoms: _369  and  _370
REMARK  153  A    between atoms: _375  and  _376
REMARK  154  A    between atoms: _378  and  _380
REMARK  155  A    between atoms: _380  and  _381
REMARK  156  A    between atoms: _380  and  _383
REMARK  157  A    between atoms: _386  and  _388
REMARK  158  A    between atoms: _388  and  _389
REMARK  159  A    between atoms: _388  and  _391
REMARK  160  A    between atoms: _391  and  _392
REMARK  161  A    between atoms: _397  and  _398
REMARK  162  A    between atoms: _400  and  _402
REMARK  163  A    between atoms: _402  and  _403
REMARK  164  A    between atoms: _402  and  _405
REMARK  165  A    between atoms: _405  and  _406
REMARK  166  A    between atoms: _408  and  _410
REMARK  167  A    between atoms: _410  and  _411
REMARK  168  A    between atoms: _413  and  _415
REMARK  169  A    between atoms: _415  and  _416
REMARK  170  A    between atoms: _415  and  _418
REMARK  171  A    between atoms: _421  and  _423
REMARK  172  A    between atoms: _423  and  _424
REMARK  173  A    between atoms: _427  and  _429
REMARK  174  A    between atoms: _429  and  _430
REMARK  175  A    between atoms: _429  and  _432
REMARK  176  A    between atoms: _432  and  _433
REMARK  177  A    between atoms: _438  and  _439
REMARK  178  A    between atoms: _441  and  _443
REMARK  179  A    between atoms: _443  and  _444
REMARK  180  A    between atoms: _443  and  _446
REMARK  181  A    between atoms: _446  and  _447
REMARK  182  A    between atoms: _449  and  _451
REMARK  183  A    between atoms: _451  and  _452
REMARK  184  A    between atoms: _455  and  _457
REMARK  185  A    between atoms: _457  and  _458
REMARK  186  A    between atoms: _461  and  _463
REMARK  187  A    between atoms: _463  and  _464
REMARK  188  A    between atoms: _463  and  _466
REMARK  189  A    between atoms: _466  and  _467
REMARK  190  A    between atoms: _467  and  _468
REMARK  191  A    between atoms: _468  and  _469
REMARK  192  A    between atoms: _469  and  _470
REMARK  193  A    between atoms: _474  and  _476
REMARK  194  A    between atoms: _476  and  _477
REMARK  195  A    between atoms: _476  and  _479
REMARK  196  A    between atoms: _479  and  _480
REMARK  197  A    between atoms: _483  and  _485
REMARK  198  A    between atoms: _485  and  _486
REMARK  199  A    between atoms: _485  and  _488
REMARK  200  A    between atoms: _488  and  _489
REMARK  201  A    between atoms: _492  and  _494
REMARK  202  A    between atoms: _494  and  _495
REMARK  203  A    between atoms: _494  and  _497
REMARK  204  A    between atoms: _497  and  _498
REMARK  205  A    between atoms: _501  and  _503
REMARK  206  A    between atoms: _503  and  _504
REMARK  207  A    between atoms: _503  and  _506
REMARK  208  A    between atoms: _506  and  _507
REMARK  209  A    between atoms: _512  and  _514
REMARK  210  A    between atoms: _514  and  _515
REMARK  211  A    between atoms: _514  and  _517
REMARK  212  A    between atoms: _517  and  _518
REMARK  213  A    between atoms: _523  and  _525
REMARK  214  A    between atoms: _525  and  _526
REMARK  215  A    between atoms: _529  and  _531
REMARK  216  A    between atoms: _531  and  _532
REMARK  217  A    between atoms: _531  and  _534
REMARK  218  A    between atoms: _534  and  _535
REMARK  219  A    between atoms: _535  and  _536
REMARK  220  A    between atoms: _539  and  _541
REMARK  221  A    between atoms: _541  and  _542
REMARK  222  A    between atoms: _541  and  _544
REMARK  223  A    between atoms: _544  and  _545
REMARK  224  A    between atoms: _545  and  _546
REMARK  225  A    between atoms: _546  and  _547
REMARK  226  A    between atoms: _547  and  _548
REMARK  227  A    between atoms: _552  and  _554
REMARK  228  A    between atoms: _554  and  _555
REMARK  229  A    between atoms: _554  and  _557
REMARK  230  A    between atoms: _557  and  _558
REMARK  231  A    between atoms: _560  and  _562
REMARK  232  A    between atoms: _562  and  _563
REMARK  233  A    between atoms: _565  and  _567
REMARK  234  A    between atoms: _567  and  _568
REMARK  235  A    between atoms: _567  and  _570
REMARK  236  A    between atoms: _570  and  _571
REMARK  237  A    between atoms: _574  and  _576
REMARK  238  A    between atoms: _576  and  _577
REMARK  239  A    between atoms: _576  and  _579
REMARK  240  A    between atoms: _579  and  _580
REMARK  241  A    between atoms: _580  and  _581
REMARK  242  A    between atoms: _584  and  _586
REMARK  243  A    between atoms: _586  and  _587
REMARK  244  A    between atoms: _586  and  _589
REMARK  245  A    between atoms: _589  and  _590
REMARK  246  A    between atoms: _590  and  _591
REMARK  247  A    between atoms: _591  and  _592
REMARK  248  A    between atoms: _601  and  _603
REMARK  249  A    between atoms: _603  and  _604
REMARK  250  A    between atoms: _603  and  _606
REMARK  251  A    between atoms: _606  and  _607
REMARK  252  A    between atoms: _612  and  _613
REMARK  253  A    between atoms: _615  and  _617
REMARK  254  A    between atoms: _617  and  _618
REMARK  255  A    between atoms: _617  and  _620
REMARK  256  A    between atoms: _620  and  _621
REMARK  257  A    between atoms: _621  and  _622
REMARK  258  A    between atoms: _625  and  _627
REMARK  259  A    between atoms: _627  and  _628
REMARK  260  A    between atoms: _627  and  _630
REMARK  261  A    between atoms: _630  and  _631
REMARK  262  A    between atoms: _634  and  _636
REMARK  263  A    between atoms: _636  and  _637
REMARK  264  A    between atoms: _636  and  _639
REMARK  265  A    between atoms: _639  and  _640
REMARK  266  A    between atoms: _646  and  _648
REMARK  267  A    between atoms: _648  and  _649
REMARK  268  A    between atoms: _648  and  _651
REMARK  269  A    between atoms: _651  and  _652
REMARK  270  A    between atoms: _652  and  _653
REMARK  271  A    between atoms: _658  and  _660
REMARK  272  A    between atoms: _660  and  _661
REMARK  273  A    between atoms: _660  and  _663
REMARK  274  A    between atoms: _666  and  _668
REMARK  275  A    between atoms: _668  and  _669
REMARK  276  A    between atoms: _668  and  _671
REMARK  277  A    between atoms: _671  and  _672
REMARK  278  A    between atoms: _678  and  _680
REMARK  279  A    between atoms: _680  and  _681
REMARK  280  A    between atoms: _680  and  _683
REMARK  281  A    between atoms: _686  and  _688
REMARK  282  A    between atoms: _688  and  _689
REMARK  283  A    between atoms: _688  and  _691
REMARK  284  A    between atoms: _691  and  _692
REMARK  285  A    between atoms: _695  and  _697
REMARK  286  A    between atoms: _697  and  _698
REMARK  287  A    between atoms: _697  and  _700
REMARK  288  A    between atoms: _700  and  _701
REMARK  289  A    between atoms: _706  and  _708
REMARK  290  A    between atoms: _708  and  _709
REMARK  291  A    between atoms: _708  and  _711
REMARK  292  A    between atoms: _711  and  _712
REMARK  293  A    between atoms: _712  and  _713
REMARK  294  A    between atoms: _713  and  _714
REMARK  295  A    between atoms: _714  and  _715
REMARK  296  A    between atoms: _719  and  _721
REMARK  297  A    between atoms: _721  and  _722
REMARK  298  A    between atoms: _724  and  _726
REMARK  299  A    between atoms: _726  and  _727
REMARK  300  A    between atoms: _726  and  _729
REMARK  301  A    between atoms: _729  and  _730
REMARK  302  A    between atoms: _733  and  _735
REMARK  303  A    between atoms: _735  and  _736
REMARK  304  A    between atoms: _735  and  _738
REMARK  305  A    between atoms: _738  and  _739
REMARK  306  A    between atoms: _739  and  _740
REMARK  307  A    between atoms: _745  and  _747
REMARK  308  A    between atoms: _747  and  _748
REMARK  309  A    between atoms: _747  and  _750
REMARK  310  A    between atoms: _750  and  _751
REMARK  311  A    between atoms: _751  and  _752
REMARK  312  A    between atoms: _755  and  _757
REMARK  313  A    between atoms: _757  and  _758
REMARK  314  A    between atoms: _757  and  _760
REMARK  315  A    between atoms: _763  and  _765
REMARK  316  A    between atoms: _765  and  _766
REMARK  317  A    between atoms: _765  and  _768
REMARK  318  A    between atoms: _768  and  _769
REMARK  319  A    between atoms: _769  and  _770
REMARK                            x       y       z     vdW  Elec       q    Type
REMARK                         _______ _______ _______ _____ _____    ______ ____
ROOT
ATOM      1  C   GLY A   8       3.130  -0.794 154.244  0.00  0.00    +0.243 C 
ATOM      2  O   GLY A   8       3.151   0.198 154.985  0.00  0.00    -0.273 OA
ATOM      3  N   LYS A   9       3.620  -0.756 153.008  0.00  0.00    -0.297 N 
ATOM      4  H   LYS A   9       3.537  -1.583 152.383  0.00  0.00    +0.150 HD
ENDROOT
BRANCH   3   5
ATOM      5  CA  LYS A   9       4.280   0.469 152.537  0.00  0.00    +0.149 C 
BRANCH   5   6
ATOM      6  C   LYS A   9       3.456   1.736 152.531  0.00  0.00    +0.241 C 
ATOM      7  O   LYS A   9       3.951   2.796 152.914  0.00  0.00    -0.273 OA
ATOM      8  N   THR A  10       2.208   1.665 152.077  0.00  0.00    -0.295 N 
ATOM      9  H   THR A  10       1.825   0.759 151.738  0.00  0.00    +0.150 HD
BRANCH   8  10
ATOM     10  CA  THR A  10       1.377   2.871 152.057  0.00  0.00    +0.176 C 
BRANCH  10  11
ATOM     11  C   THR A  10       1.207   3.350 153.495  0.00  0.00    +0.243 C 
ATOM     12  N   THR A  11       1.011   2.384 154.387  0.00  0.00    -0.295 N 
ATOM     13  H   THR A  11       1.001   1.400 154.049  0.00  0.00    +0.150 HD
ATOM     14  O   THR A  10       1.248   4.545 153.767  0.00  0.00    -0.273 OA
BRANCH  12  15
ATOM     15  CA  THR A  11       0.808   2.623 155.817  0.00  0.00    +0.176 C 
BRANCH  15  16
ATOM     16  C   THR A  11       1.980   3.416 156.375  0.00  0.00    +0.243 C 
ATOM     17  O   THR A  11       1.821   4.524 156.878  0.00  0.00    -0.273 OA
ATOM     18  N   GLN A  12       3.168   2.841 156.262  0.00  0.00    -0.297 N 
ATOM     19  H   GLN A  12       3.242   1.911 155.802  0.00  0.00    +0.150 HD
BRANCH  18  20
ATOM     20  CA  GLN A  12       4.368   3.481 156.767  0.00  0.00    +0.149 C 
BRANCH  20  21
ATOM     21  C   GLN A  12       4.645   4.836 156.135  0.00  0.00    +0.241 C 
ATOM     22  O   GLN A  12       5.108   5.775 156.809  0.00  0.00    -0.273 OA
ATOM     23  N   CYS A  13       4.341   4.959 154.846  0.00  0.00    -0.296 N 
ATOM     24  H   CYS A  13       3.925   4.151 154.341  0.00  0.00    +0.150 HD
BRANCH  23  25
ATOM     25  CA  CYS A  13       4.581   6.210 154.124  0.00  0.00    +0.160 C 
BRANCH  25  26
ATOM     26  C   CYS A  13       3.707   7.335 154.649  0.00  0.00    +0.242 C 
ATOM     27  N   ASN A  14       2.446   7.027 154.913  0.00  0.00    -0.297 N 
ATOM     28  H   ASN A  14       2.112   6.056 154.747  0.00  0.00    +0.150 HD
ATOM     29  O   CYS A  13       4.159   8.464 154.810  0.00  0.00    -0.273 OA
BRANCH  27  30
ATOM     30  CA  ASN A  14       1.512   8.029 155.435  0.00  0.00    +0.158 C 
BRANCH  30  31
ATOM     31  C   ASN A  14       1.981   8.484 156.825  0.00  0.00    +0.241 C 
ATOM     32  N   ILE A  15       2.476   7.530 157.599  0.00  0.00    -0.298 N 
ATOM     33  H   ILE A  15       2.502   6.553 157.243  0.00  0.00    +0.150 HD
ATOM     34  O   ASN A  14       1.905   9.661 157.180  0.00  0.00    -0.273 OA
BRANCH  32  35
ATOM     35  CA  ILE A  15       2.985   7.810 158.934  0.00  0.00    +0.137 C 
BRANCH  35  36
ATOM     36  C   ILE A  15       4.184   8.749 158.782  0.00  0.00    +0.227 C 
ATOM     37  O   ILE A  15       4.195   9.856 159.316  0.00  0.00    -0.286 OA
ENDBRANCH  35  36
BRANCH  35  38
ATOM     38  CB  ILE A  15       3.411   6.493 159.623  0.00  0.00    +0.026 C 
ATOM     39  CG2 ILE A  15       4.318   6.776 160.803  0.00  0.00    +0.002 C 
BRANCH  38  40
ATOM     40  CG1 ILE A  15       2.177   5.761 160.133  0.00  0.00    +0.002 C 
ATOM     41  CD1 ILE A  15       2.375   4.272 160.382  0.00  0.00    +0.000 C 
ENDBRANCH  38  40
ENDBRANCH  35  38
ENDBRANCH  32  35
ENDBRANCH  30  31
BRANCH  30  42
ATOM     42  CB  ASN A  14       0.105   7.424 155.526  0.00  0.00    +0.114 C 
BRANCH  42  43
ATOM     43  CG  ASN A  14      -0.618   7.440 154.190  0.00  0.00    +0.222 C 
ATOM     44  ND2 ASN A  14      -1.002   6.274 153.704  0.00  0.00    -0.329 N 
ATOM     45 HD21 ASN A  14      -0.808   5.400 154.234  0.00  0.00    +0.145 HD
ATOM     46 HD22 ASN A  14      -1.499   6.229 152.791  0.00  0.00    +0.145 HD
ATOM     47  OD1 ASN A  14      -0.822   8.492 153.607  0.00  0.00    -0.275 OA
ENDBRANCH  42  43
ENDBRANCH  30  42
ENDBRANCH  27  30
ENDBRANCH  25  26
BRANCH  25  48
ATOM     48  CB  CYS A  13       4.336   6.006 152.617  0.00  0.00    +0.098 C 
ATOM     49  SG  CYS A  13       5.695   5.127 151.758  0.00  0.00    -0.080 S 
ENDBRANCH  25  48
ENDBRANCH  23  25
ENDBRANCH  20  21
BRANCH  20  50
ATOM     50  CB  GLN A  12       5.543   2.523 156.575  0.00  0.00    +0.039 C 
BRANCH  50  51
ATOM     51  CG  GLN A  12       5.422   1.265 157.448  0.00  0.00    +0.087 C 
BRANCH  51  52
ATOM     52  CD  GLN A  12       5.395   1.585 158.956  0.00  0.00    +0.219 C 
ATOM     53  NE2 GLN A  12       4.950   0.624 159.754  0.00  0.00    -0.329 N 
ATOM     54 HE21 GLN A  12       4.906   0.780 160.781  0.00  0.00    +0.145 HD
ATOM     55 HE22 GLN A  12       4.645  -0.286 159.353  0.00  0.00    +0.145 HD
ATOM     56  OE1 GLN A  12       5.769   2.684 159.385  0.00  0.00    -0.275 OA
ENDBRANCH  51  52
ENDBRANCH  50  51
ENDBRANCH  20  50
ENDBRANCH  18  20
ENDBRANCH  15  16
BRANCH  15  57
ATOM     57  CB  THR A  11       0.689   1.264 156.588  0.00  0.00    +0.137 C 
ATOM     58  CG2 THR A  11       0.505   1.507 158.095  0.00  0.00    +0.034 C 
BRANCH  57  59
ATOM     59  OG1 THR A  11      -0.435   0.514 156.090  0.00  0.00    -0.382 OA
ATOM     60  HG1 THR A  11      -0.308   0.332 155.125  0.00  0.00    +0.210 HD
ENDBRANCH  57  59
ENDBRANCH  15  57
ENDBRANCH  12  15
ENDBRANCH  10  11
BRANCH  10  61
ATOM     61  CB  THR A  10      -0.065   2.624 151.467  0.00  0.00    +0.137 C 
ATOM     62  CG2 THR A  10      -0.821   3.926 151.353  0.00  0.00    +0.034 C 
BRANCH  61  63
ATOM     63  OG1 THR A  10       0.025   2.031 150.167  0.00  0.00    -0.382 OA
ATOM     64  HG1 THR A  10       0.501   1.165 150.233  0.00  0.00    +0.210 HD
ENDBRANCH  61  63
ENDBRANCH  10  61
ENDBRANCH   8  10
ENDBRANCH   5   6
BRANCH   5  65
ATOM     65  CB  LYS A   9       4.875   0.265 151.140  0.00  0.00    +0.029 C 
BRANCH  65  66
ATOM     66  CG  LYS A   9       5.721  -0.974 150.990  0.00  0.00    +0.000 C 
BRANCH  66  67
ATOM     67  CD  LYS A   9       6.012  -1.198 149.497  0.00  0.00    -0.024 C 
BRANCH  67  68
ATOM     68  CE  LYS A   9       4.721  -1.246 148.696  0.00  0.00    -0.086 C 
BRANCH  68  69
ATOM     69  NZ  LYS A   9       4.242  -2.634 148.786  0.00  0.00    +0.380 N 
ATOM     70  HZ1 LYS A   9       4.076  -2.878 149.783  0.00  0.00    -0.089 HD
ATOM     71  HZ2 LYS A   9       4.958  -3.273 148.386  0.00  0.00    -0.089 HD
ATOM     72  HZ3 LYS A   9       3.354  -2.728 148.253  0.00  0.00    -0.089 HD
ENDBRANCH  68  69
ENDBRANCH  67  68
ENDBRANCH  66  67
ENDBRANCH  65  66
ENDBRANCH   5  65
ENDBRANCH   3   5
BRANCH   1  73
ATOM     73  CA  GLY A   8       2.487  -2.071 154.723  0.00  0.00    +0.176 C 
BRANCH  73  76
ATOM     74  C   THR A   7       3.914  -3.916 154.018  0.00  0.00    +0.243 C 
ATOM     75  O   THR A   7       4.908  -3.439 154.582  0.00  0.00    -0.273 OA
ATOM     76  N   GLY A   8       2.724  -3.315 154.009  0.00  0.00    -0.295 N 
ATOM     77  H   GLY A   8       1.943  -3.748 153.476  0.00  0.00    +0.150 HD
BRANCH  74  78
ATOM     78  CA  THR A   7       4.019  -5.242 153.251  0.00  0.00    +0.176 C 
BRANCH  78  81
ATOM     79  C   ARG A   6       2.221  -6.491 152.170  0.00  0.00    +0.241 C 
ATOM     80  O   ARG A   6       2.447  -7.485 152.846  0.00  0.00    -0.273 OA
ATOM     81  N   THR A   7       2.942  -5.375 152.267  0.00  0.00    -0.295 N 
ATOM     82  H   THR A   7       2.735  -4.580 151.629  0.00  0.00    +0.150 HD
BRANCH  79  83
ATOM     83  CA  ARG A   6       1.086  -6.502 151.142  0.00  0.00    +0.149 C 
BRANCH  83  85
ATOM     84  C   ASP A   5       2.524  -6.637 149.155  0.00  0.00    +0.241 C 
ATOM     85  N   ARG A   6       1.513  -6.066 149.810  0.00  0.00    -0.297 N 
ATOM     86  H   ARG A   6       1.007  -5.279 149.357  0.00  0.00    +0.150 HD
ATOM     87  O   ASP A   5       3.215  -7.542 149.613  0.00  0.00    -0.273 OA
BRANCH  84  88
ATOM     88  CA  ASP A   5       2.811  -6.114 147.770  0.00  0.00    +0.160 C 
BRANCH  88  91
ATOM     89  C   LEU A   4       5.206  -5.923 148.028  0.00  0.00    +0.241 C 
ATOM     90  O   LEU A   4       5.087  -4.935 148.754  0.00  0.00    -0.273 OA
ATOM     91  N   ASP A   5       4.167  -6.543 147.482  0.00  0.00    -0.297 N 
ATOM     92  H   ASP A   5       4.327  -7.346 146.840  0.00  0.00    +0.150 HD
BRANCH  89  93
ATOM     93  CA  LEU A   4       6.578  -6.464 147.666  0.00  0.00    +0.149 C 
BRANCH  93  95
ATOM     94  C   GLY A   3       7.848  -4.453 148.069  0.00  0.00    +0.243 C 
ATOM     95  N   LEU A   4       7.582  -5.711 148.381  0.00  0.00    -0.297 N 
ATOM     96  H   LEU A   4       8.106  -6.166 149.156  0.00  0.00    +0.150 HD
ATOM     97  O   GLY A   3       7.285  -3.841 147.161  0.00  0.00    -0.273 OA
BRANCH  94  98
ATOM     98  CA  GLY A   3       8.902  -3.773 148.889  0.00  0.00    +0.176 C 
BRANCH  98 101
ATOM     99  C   GLU A   2       9.615  -1.492 149.052  0.00  0.00    +0.241 C 
ATOM    100  O   GLU A   2       9.776  -1.592 150.272  0.00  0.00    -0.273 OA
ATOM    101  N   GLY A   3       9.189  -2.487 148.293  0.00  0.00    -0.295 N 
ATOM    102  H   GLY A   3       9.061  -2.345 147.271  0.00  0.00    +0.150 HD
BRANCH  99 103
ATOM    103  CA  GLU A   2       9.901  -0.201 148.337  0.00  0.00    +0.149 C 
BRANCH 103 105
ATOM    104  C   ILE A   1       9.612   1.991 149.355  0.00  0.00    +0.238 C 
ATOM    105  N   GLU A   2      10.213   0.806 149.336  0.00  0.00    -0.297 N 
ATOM    106  H   GLU A   2      10.929   0.593 150.059  0.00  0.00    +0.150 HD
ATOM    107  O   ILE A   1       8.765   2.344 148.533  0.00  0.00    -0.274 OA
BRANCH 104 108
ATOM    108  CA  ILE A   1      10.050   2.931 150.457  0.00  0.00    +0.145 C 
BRANCH 108 109
ATOM    109  N   ILE A   1      10.362   4.178 149.779  0.00  0.00    -0.238 NA
ATOM    110  H   ILE A   1       9.603   4.695 149.290  0.00  0.00    +0.142 HD
ENDBRANCH 108 109
BRANCH 108 111
ATOM    111  CB  ILE A   1       8.901   3.074 151.491  0.00  0.00    +0.025 C 
ATOM    112  CG2 ILE A   1       8.145   1.751 151.639  0.00  0.00    +0.002 C 
BRANCH 111 113
ATOM    113  CG1 ILE A   1       9.479   3.425 152.863  0.00  0.00    +0.002 C 
ATOM    114  CD1 ILE A   1       9.913   4.860 152.969  0.00  0.00    +0.000 C 
ENDBRANCH 111 113
ENDBRANCH 108 111
ENDBRANCH 104 108
ENDBRANCH 103 105
BRANCH 103 115
ATOM    115  CB  GLU A   2      11.090  -0.407 147.378  0.00  0.00    +0.041 C 
BRANCH 115 116
ATOM    116  CG  GLU A   2      11.229   0.683 146.342  0.00  0.00    +0.116 C 
BRANCH 116 117
ATOM    117  CD  GLU A   2      10.481   0.330 145.062  0.00  0.00    +0.365 C 
ATOM    118  OE2 GLU A   2       9.690  -0.641 145.113  0.00  0.00    -0.246 OA
ATOM    119  OE1 GLU A   2      10.693   1.012 144.026  0.00  0.00    -0.246 OA
ENDBRANCH 116 117
ENDBRANCH 115 116
ENDBRANCH 103 115
ENDBRANCH  99 103
ENDBRANCH  98 101
ENDBRANCH  94  98
ENDBRANCH  93  95
BRANCH  93 120
ATOM    120  CB  LEU A   4       6.690  -7.944 148.018  0.00  0.00    +0.029 C 
BRANCH 120 121
ATOM    121  CG  LEU A   4       7.969  -8.615 147.485  0.00  0.00    +0.002 C 
ATOM    122  CD2 LEU A   4       8.177  -9.951 148.203  0.00  0.00    +0.000 C 
ATOM    123  CD1 LEU A   4       7.871  -8.834 145.958  0.00  0.00    +0.000 C 
ENDBRANCH 120 121
ENDBRANCH  93 120
ENDBRANCH  89  93
ENDBRANCH  88  91
BRANCH  88 124
ATOM    124  CB  ASP A   5       1.834  -6.748 146.774  0.00  0.00    +0.143 C 
BRANCH 124 125
ATOM    125  CG  ASP A   5       1.958  -6.149 145.392  0.00  0.00    +0.367 C 
ATOM    126  OD2 ASP A   5       1.392  -5.059 145.154  0.00  0.00    -0.246 OA
ATOM    127  OD1 ASP A   5       2.638  -6.764 144.550  0.00  0.00    -0.246 OA
ENDBRANCH 124 125
ENDBRANCH  88 124
ENDBRANCH  84  88
ENDBRANCH  83  85
BRANCH  83 128
ATOM    128  CB  ARG A   6       0.459  -7.919 151.069  0.00  0.00    +0.033 C 
BRANCH 128 129
ATOM    129  CG  ARG A   6      -0.869  -8.003 150.282  0.00  0.00    +0.045 C 
BRANCH 129 130
ATOM    130  CD  ARG A   6      -1.270  -9.447 149.907  0.00  0.00    +0.174 C 
BRANCH 130 131
ATOM    131  NE  ARG A   6      -2.474  -9.467 149.053  0.00  0.00    -0.265 N 
ATOM    132  CZ  ARG A   6      -3.271 -10.524 148.841  0.00  0.00    +0.342 C 
ATOM    133  NH2 ARG A   6      -3.016 -11.696 149.415  0.00  0.00    -0.292 N 
ATOM    134 HH21 ARG A   6      -2.190 -11.801 150.037  0.00  0.00    +0.255 HD
ATOM    135 HH22 ARG A   6      -3.643 -12.507 149.241  0.00  0.00    +0.255 HD
ATOM    136  NH1 ARG A   6      -4.354 -10.398 148.073  0.00  0.00    -0.292 N 
ATOM    137 HH11 ARG A   6      -4.973 -11.217 147.908  0.00  0.00    +0.255 HD
ATOM    138 HH12 ARG A   6      -4.580  -9.480 147.639  0.00  0.00    +0.255 HD
ATOM    139  HE  ARG A   6      -2.727  -8.580 148.572  0.00  0.00    +0.259 HD
ENDBRANCH 130 131
ENDBRANCH 129 130
ENDBRANCH 128 129
ENDBRANCH  83 128
ENDBRANCH  79  83
ENDBRANCH  78  81
BRANCH  78 140
ATOM    140  CB  THR A   7       5.444  -5.327 152.613  0.00  0.00    +0.137 C 
ATOM    141  CG2 THR A   7       5.715  -6.709 152.074  0.00  0.00    +0.034 C 
BRANCH 140 142
ATOM    142  OG1 THR A   7       5.567  -4.356 151.571  0.00  0.00    -0.382 OA
ATOM    143  HG1 THR A   7       4.885  -4.532 150.875  0.00  0.00    +0.210 HD
ENDBRANCH 140 142
ENDBRANCH  78 140
ENDBRANCH  74  78
ENDBRANCH  73  76
ENDBRANCH   1  73
TORSDOF 62
REMARK  Name = ../refined-set-2016/3tmk/3tmk_pocket.pdb
REMARK  319 active torsions:
REMARK  status: ('A' for Active; 'I' for Inactive)
REMARK    1  A    between atoms: _1  and  _3
REMARK    2  A    between atoms: _3  and  _4
REMARK    3  A    between atoms: _3  and  _6
REMARK    4  A    between atoms: _6  and  _7
REMARK    5  A    between atoms: _10  and  _12
REMARK    6  A    between atoms: _12  and  _13
REMARK    7  A    between atoms: _12  and  _15
REMARK    8  A    between atoms: _15  and  _16
REMARK    9  A    between atoms: _16  and  _17
REMARK   10  A    between atoms: _20  and  _22
REMARK   11  A    between atoms: _22  and  _23
REMARK   12  A    between atoms: _25  and  _27
REMARK   13  A    between atoms: _27  and  _28
REMARK   14  A    between atoms: _27  and  _30
REMARK   15  A    between atoms: _30  and  _31
REMARK   16  A    between atoms: _34  and  _36
REMARK   17  A    between atoms: _36  and  _37
REMARK   18  A    between atoms: _36  and  _39
REMARK   19  A    between atoms: _39  and  _40
REMARK   20  A    between atoms: _43  and  _45
REMARK   21  A    between atoms: _45  and  _46
REMARK   22  A    between atoms: _45  and  _48
REMARK   23  A    between atoms: _48  and  _49
REMARK   24  A    between atoms: _49  and  _50
REMARK   25  A    between atoms: _50  and  _51
REMARK   26  A    between atoms: _60  and  _62
REMARK   27  A    between atoms: _62  and  _63
REMARK   28  A    between atoms: _62  and  _65
REMARK   29  A    between atoms: _65  and  _66
REMARK   30  A    between atoms: _69  and  _71
REMARK   31  A    between atoms: _71  and  _72
REMARK   32  A    between atoms: _74  and  _76
REMARK   33  A    between atoms: _76  and  _77
REMARK   34  A    between atoms: _76  and  _79
REMARK   35  A    between atoms: _79  and  _80
REMARK   36  A    between atoms: _80  and  _81
REMARK   37  A    between atoms: _81  and  _82
REMARK   38  A    between atoms: _82  and  _83
REMARK   39  A    between atoms: _87  and  _89
REMARK   40  A    between atoms: _89  and  _90
REMARK   41  A    between atoms: _89  and  _92
REMARK   42  A    between atoms: _92  and  _93
REMARK   43  A    between atoms: _96  and  _98
REMARK   44  A    between atoms: _98  and  _99
REMARK   45  A    between atoms: _98  and  _101
REMARK   46  A    between atoms: _101  and  _102
REMARK   47  A    between atoms: _105  and  _107
REMARK   48  A    between atoms: _107  and  _108
REMARK   49  A    between atoms: _107  and  _110
REMARK   50  A    between atoms: _110  and  _111
REMARK   51  A    between atoms: _111  and  _112
REMARK   52  A    between atoms: _117  and  _119
REMARK   53  A    between atoms: _119  and  _120
REMARK   54  A    between atoms: _119  and  _122
REMARK   55  A    between atoms: _124  and  _126
REMARK   56  A    between atoms: _126  and  _127
REMARK   57  A    between atoms: _126  and  _129
REMARK   58  A    between atoms: _129  and  _130
REMARK   59  A    between atoms: _135  and  _137
REMARK   60  A    between atoms: _137  and  _138
REMARK   61  A    between atoms: _137  and  _140
REMARK   62  A    between atoms: _140  and  _141
REMARK   63  A    between atoms: _144  and  _146
REMARK   64  A    between atoms: _146  and  _147
REMARK   65  A    between atoms: _146  and  _149
REMARK   66  A    between atoms: _149  and  _150
REMARK   67  A    between atoms: _150  and  _151
REMARK   68  A    between atoms: _151  and  _152
REMARK   69  A    between atoms: _152  and  _153
REMARK   70  A    between atoms: _157  and  _159
REMARK   71  A    between atoms: _159  and  _160
REMARK   72  A    between atoms: _159  and  _162
REMARK   73  A    between atoms: _162  and  _163
REMARK   74  A    between atoms: _170  and  _171
REMARK   75  A    between atoms: _176  and  _178
REMARK   76  A    between atoms: _178  and  _179
REMARK   77  A    between atoms: _178  and  _181
REMARK   78  A    between atoms: _181  and  _182
REMARK   79  A    between atoms: _182  and  _183
REMARK   80  A    between atoms: _186  and  _188
REMARK   81  A    between atoms: _188  and  _189
REMARK   82  A    between atoms: _188  and  _191
REMARK   83  A    between atoms: _191  and  _192
REMARK   84  A    between atoms: _192  and  _193
REMARK   85  A    between atoms: _193  and  _194
REMARK   86  A    between atoms: _203  and  _205
REMARK   87  A    between atoms: _205  and  _206
REMARK   88  A    between atoms: _205  and  _208
REMARK   89  A    between atoms: _208  and  _209
REMARK   90  A    between atoms: _212  and  _214
REMARK   91  A    between atoms: _214  and  _215
REMARK   92  A    between atoms: _214  and  _217
REMARK   93  A    between atoms: _217  and  _218
REMARK   94  A    between atoms: _223  and  _225
REMARK   95  A    between atoms: _225  and  _226
REMARK   96  A    between atoms: _225  and  _228
REMARK   97  A    between atoms: _228  and  _229
REMARK   98  A    between atoms: _234  and  _235
REMARK   99  A    between atoms: _237  and  _239
REMARK  100  A    between atoms: _239  and  _240
REMARK  101  A    between atoms: _239  and  _242
REMARK  102  A    between atoms: _242  and  _243
REMARK  103  A    between atoms: _246  and  _248
REMARK  104  A    between atoms: _248  and  _249
REMARK  105  A    between atoms: _248  and  _251
REMARK  106  A    between atoms: _251  and  _252
REMARK  107  A    between atoms: _255  and  _257
REMARK  108  A    between atoms: _257  and  _258
REMARK  109  A    between atoms: _257  and  _260
REMARK  110  A    between atoms: _260  and  _261
REMARK  111  A    between atoms: _264  and  _266
REMARK  112  A    between atoms: _266  and  _267
REMARK  113  A    between atoms: _266  and  _269
REMARK  114  A    between atoms: _269  and  _270
REMARK  115  A    between atoms: _275  and  _277
REMARK  116  A    between atoms: _277  and  _278
REMARK  117  A    between atoms: _277  and  _280
REMARK  118  A    between atoms: _280  and  _281
REMARK  119  A    between atoms: _284  and  _286
REMARK  120  A    between atoms: _286  and  _287
REMARK  121  A    between atoms: _286  and  _289
REMARK  122  A    between atoms: _289  and  _290
REMARK  123  A    between atoms: _296  and  _298
REMARK  124  A    between atoms: _298  and  _299
REMARK  125  A    between atoms: _298  and  _301
REMARK  126  A    between atoms: _301  and  _302
REMARK  127  A    between atoms: _304  and  _306
REMARK  128  A    between atoms: _306  and  _307
REMARK  129  A    between atoms: _310  and  _312
REMARK  130  A    between atoms: _312  and  _313
REMARK  131  A    between atoms: _312  and  _315
REMARK  132  A    between atoms: _315  and  _316
REMARK  133  A    between atoms: _321  and  _323
REMARK  134  A    between atoms: _323  and  _324
REMARK  135  A    between atoms: _323  and  _326
REMARK  136  A    between atoms: _326  and  _327
REMARK  137  A    between atoms: _327  and  _328
REMARK  138  A    between atoms: _328  and  _329
REMARK  139  A    between atoms: _338  and  _340
REMARK  140  A    between atoms: _340  and  _341
REMARK  141  A    between atoms: _340  and  _343
REMARK  142  A    between atoms: _343  and  _344
REMARK  143  A    between atoms: _347  and  _349
REMARK  144  A    between atoms: _349  and  _350
REMARK  145  A    between atoms: _349  and  _352
REMARK  146  A    between atoms: _352  and  _353
REMARK  147  A    between atoms: _353  and  _354
REMARK  148  A    between atoms: _354  and  _355
REMARK  149  A    between atoms: _364  and  _366
REMARK  150  A    between atoms: _366  and  _367
REMARK  151  A    between atoms: _366  and  _369
REMARK  152  A    between atoms: _369  and  _370
REMARK  153  A    between atoms: _375  and  _376
REMARK  154  A    between atoms: _378  and  _380
REMARK  155  A    between atoms: _380  and  _381
REMARK  156  A    between atoms: _380  and  _383
REMARK  157  A    between atoms: _386  and  _388
REMARK  158  A    between atoms: _388  and  _389
REMARK  159  A    between atoms: _388  and  _391
REMARK  160  A    between atoms: _391  and  _392
REMARK  161  A    between atoms: _397  and  _398
REMARK  162  A    between atoms: _400  and  _402
REMARK  163  A    between atoms: _402  and  _403
REMARK  164  A    between atoms: _402  and  _405
REMARK  165  A    between atoms: _405  and  _406
REMARK  166  A    between atoms: _408  and  _410
REMARK  167  A    between atoms: _410  and  _411
REMARK  168  A    between atoms: _413  and  _415
REMARK  169  A    between atoms: _415  and  _416
REMARK  170  A    between atoms: _415  and  _418
REMARK  171  A    between atoms: _421  and  _423
REMARK  172  A    between atoms: _423  and  _424
REMARK  173  A    between atoms: _427  and  _429
REMARK  174  A    between atoms: _429  and  _430
REMARK  175  A    between atoms: _429  and  _432
REMARK  176  A    between atoms: _432  and  _433
REMARK  177  A    between atoms: _438  and  _439
REMARK  178  A    between atoms: _441  and  _443
REMARK  179  A    between atoms: _443  and  _444
REMARK  180  A    between atoms: _443  and  _446
REMARK  181  A    between atoms: _446  and  _447
REMARK  182  A    between atoms: _449  and  _451
REMARK  183  A    between atoms: _451  and  _452
REMARK  184  A    between atoms: _455  and  _457
REMARK  185  A    between atoms: _457  and  _458
REMARK  186  A    between atoms: _461  and  _463
REMARK  187  A    between atoms: _463  and  _464
REMARK  188  A    between atoms: _463  and  _466
REMARK  189  A    between atoms: _466  and  _467
REMARK  190  A    between atoms: _467  and  _468
REMARK  191  A    between atoms: _468  and  _469
REMARK  192  A    between atoms: _469  and  _470
REMARK  193  A    between atoms: _474  and  _476
REMARK  194  A    between atoms: _476  and  _477
REMARK  195  A    between atoms: _476  and  _479
REMARK  196  A    between atoms: _479  and  _480
REMARK  197  A    between atoms: _483  and  _485
REMARK  198  A    between atoms: _485  and  _486
REMARK  199  A    between atoms: _485  and  _488
REMARK  200  A    between atoms: _488  and  _489
REMARK  201  A    between atoms: _492  and  _494
REMARK  202  A    between atoms: _494  and  _495
REMARK  203  A    between atoms: _494  and  _497
REMARK  204  A    between atoms: _497  and  _498
REMARK  205  A    between atoms: _501  and  _503
REMARK  206  A    between atoms: _503  and  _504
REMARK  207  A    between atoms: _503  and  _506
REMARK  208  A    between atoms: _506  and  _507
REMARK  209  A    between atoms: _512  and  _514
REMARK  210  A    between atoms: _514  and  _515
REMARK  211  A    between atoms: _514  and  _517
REMARK  212  A    between atoms: _517  and  _518
REMARK  213  A    between atoms: _523  and  _525
REMARK  214  A    between atoms: _525  and  _526
REMARK  215  A    between atoms: _529  and  _531
REMARK  216  A    between atoms: _531  and  _532
REMARK  217  A    between atoms: _531  and  _534
REMARK  218  A    between atoms: _534  and  _535
REMARK  219  A    between atoms: _535  and  _536
REMARK  220  A    between atoms: _539  and  _541
REMARK  221  A    between atoms: _541  and  _542
REMARK  222  A    between atoms: _541  and  _544
REMARK  223  A    between atoms: _544  and  _545
REMARK  224  A    between atoms: _545  and  _546
REMARK  225  A    between atoms: _546  and  _547
REMARK  226  A    between atoms: _547  and  _548
REMARK  227  A    between atoms: _552  and  _554
REMARK  228  A    between atoms: _554  and  _555
REMARK  229  A    between atoms: _554  and  _557
REMARK  230  A    between atoms: _557  and  _558
REMARK  231  A    between atoms: _560  and  _562
REMARK  232  A    between atoms: _562  and  _563
REMARK  233  A    between atoms: _565  and  _567
REMARK  234  A    between atoms: _567  and  _568
REMARK  235  A    between atoms: _567  and  _570
REMARK  236  A    between atoms: _570  and  _571
REMARK  237  A    between atoms: _574  and  _576
REMARK  238  A    between atoms: _576  and  _577
REMARK  239  A    between atoms: _576  and  _579
REMARK  240  A    between atoms: _579  and  _580
REMARK  241  A    between atoms: _580  and  _581
REMARK  242  A    between atoms: _584  and  _586
REMARK  243  A    between atoms: _586  and  _587
REMARK  244  A    between atoms: _586  and  _589
REMARK  245  A    between atoms: _589  and  _590
REMARK  246  A    between atoms: _590  and  _591
REMARK  247  A    between atoms: _591  and  _592
REMARK  248  A    between atoms: _601  and  _603
REMARK  249  A    between atoms: _603  and  _604
REMARK  250  A    between atoms: _603  and  _606
REMARK  251  A    between atoms: _606  and  _607
REMARK  252  A    between atoms: _612  and  _613
REMARK  253  A    between atoms: _615  and  _617
REMARK  254  A    between atoms: _617  and  _618
REMARK  255  A    between atoms: _617  and  _620
REMARK  256  A    between atoms: _620  and  _621
REMARK  257  A    between atoms: _621  and  _622
REMARK  258  A    between atoms: _625  and  _627
REMARK  259  A    between atoms: _627  and  _628
REMARK  260  A    between atoms: _627  and  _630
REMARK  261  A    between atoms: _630  and  _631
REMARK  262  A    between atoms: _634  and  _636
REMARK  263  A    between atoms: _636  and  _637
REMARK  264  A    between atoms: _636  and  _639
REMARK  265  A    between atoms: _639  and  _640
REMARK  266  A    between atoms: _646  and  _648
REMARK  267  A    between atoms: _648  and  _649
REMARK  268  A    between atoms: _648  and  _651
REMARK  269  A    between atoms: _651  and  _652
REMARK  270  A    between atoms: _652  and  _653
REMARK  271  A    between atoms: _658  and  _660
REMARK  272  A    between atoms: _660  and  _661
REMARK  273  A    between atoms: _660  and  _663
REMARK  274  A    between atoms: _666  and  _668
REMARK  275  A    between atoms: _668  and  _669
REMARK  276  A    between atoms: _668  and  _671
REMARK  277  A    between atoms: _671  and  _672
REMARK  278  A    between atoms: _678  and  _680
REMARK  279  A    between atoms: _680  and  _681
REMARK  280  A    between atoms: _680  and  _683
REMARK  281  A    between atoms: _686  and  _688
REMARK  282  A    between atoms: _688  and  _689
REMARK  283  A    between atoms: _688  and  _691
REMARK  284  A    between atoms: _691  and  _692
REMARK  285  A    between atoms: _695  and  _697
REMARK  286  A    between atoms: _697  and  _698
REMARK  287  A    between atoms: _697  and  _700
REMARK  288  A    between atoms: _700  and  _701
REMARK  289  A    between atoms: _706  and  _708
REMARK  290  A    between atoms: _708  and  _709
REMARK  291  A    between atoms: _708  and  _711
REMARK  292  A    between atoms: _711  and  _712
REMARK  293  A    between atoms: _712  and  _713
REMARK  294  A    between atoms: _713  and  _714
REMARK  295  A    between atoms: _714  and  _715
REMARK  296  A    between atoms: _719  and  _721
REMARK  297  A    between atoms: _721  and  _722
REMARK  298  A    between atoms: _724  and  _726
REMARK  299  A    between atoms: _726  and  _727
REMARK  300  A    between atoms: _726  and  _729
REMARK  301  A    between atoms: _729  and  _730
REMARK  302  A    between atoms: _733  and  _735
REMARK  303  A    between atoms: _735  and  _736
REMARK  304  A    between atoms: _735  and  _738
REMARK  305  A    between atoms: _738  and  _739
REMARK  306  A    between atoms: _739  and  _740
REMARK  307  A    between atoms: _745  and  _747
REMARK  308  A    between atoms: _747  and  _748
REMARK  309  A    between atoms: _747  and  _750
REMARK  310  A    between atoms: _750  and  _751
REMARK  311  A    between atoms: _751  and  _752
REMARK  312  A    between atoms: _755  and  _757
REMARK  313  A    between atoms: _757  and  _758
REMARK  314  A    between atoms: _757  and  _760
REMARK  315  A    between atoms: _763  and  _765
REMARK  316  A    between atoms: _765  and  _766
REMARK  317  A    between atoms: _765  and  _768
REMARK  318  A    between atoms: _768  and  _769
REMARK  319  A    between atoms: _769  and  _770
REMARK                            x       y       z     vdW  Elec       q    Type
REMARK                         _______ _______ _______ _____ _____    ______ ____
ROOT
ATOM      1  C   PHE A   2       3.062   3.637 142.144  0.00  0.00    +0.244 C 
ATOM      2  O   PHE A   2       3.388   2.910 143.074  0.00  0.00    -0.273 OA
ATOM      3  N   PRO A   3       2.229   3.225 141.167  0.00  0.00    -0.272 N 
ATOM      4  CD  PRO A   3       1.686   1.862 141.046  0.00  0.00    +0.094 C 
ATOM      5  CG  PRO A   3       0.640   2.005 139.997  0.00  0.00    +0.024 C 
ATOM      6  CB  PRO A   3       1.030   3.151 139.145  0.00  0.00    +0.031 C 
ATOM      7  CA  PRO A   3       1.792   4.091 140.069  0.00  0.00    +0.152 C 
ENDROOT
BRANCH   7   8
ATOM      8  C   PRO A   3       0.929   5.237 140.520  0.00  0.00    +0.241 C 
ATOM      9  O   PRO A   3       0.158   5.106 141.463  0.00  0.00    -0.273 OA
ATOM     10  N   GLU A   4       1.076   6.371 139.853  0.00  0.00    -0.297 N 
ATOM     11  H   GLU A   4       1.786   6.415 139.094  0.00  0.00    +0.150 HD
BRANCH  10  12
ATOM     12  CA  GLU A   4       0.286   7.555 140.138  0.00  0.00    +0.149 C 
BRANCH  12  13
ATOM     13  C   GLU A   4      -0.910   7.482 139.170  0.00  0.00    +0.241 C 
ATOM     14  N   ARG A   5      -1.953   6.782 139.617  0.00  0.00    -0.298 N 
ATOM     15  H   ARG A   5      -1.899   6.394 140.580  0.00  0.00    +0.150 HD
ATOM     16  O   GLU A   4      -0.870   8.033 138.056  0.00  0.00    -0.273 OA
BRANCH  14  17
ATOM     17  CA  ARG A   5      -3.169   6.523 138.844  0.00  0.00    +0.137 C 
BRANCH  17  18
ATOM     18  C   ARG A   5      -4.087   7.676 138.452  0.00  0.00    +0.227 C 
ATOM     19  O   ARG A   5      -5.073   7.455 137.745  0.00  0.00    -0.286 OA
ENDBRANCH  17  18
BRANCH  17  20
ATOM     20  CB  ARG A   5      -4.003   5.469 139.577  0.00  0.00    +0.031 C 
BRANCH  20  21
ATOM     21  CG  ARG A   5      -3.179   4.369 140.183  0.00  0.00    +0.045 C 
BRANCH  21  22
ATOM     22  CD  ARG A   5      -4.048   3.352 140.914  0.00  0.00    +0.174 C 
BRANCH  22  23
ATOM     23  NE  ARG A   5      -3.246   2.327 141.580  0.00  0.00    -0.265 N 
ATOM     24  HE  ARG A   5      -2.384   2.633 142.074  0.00  0.00    +0.259 HD
ATOM     25  CZ  ARG A   5      -3.542   1.029 141.598  0.00  0.00    +0.342 C 
ATOM     26  NH2 ARG A   5      -2.772   0.168 142.258  0.00  0.00    -0.292 N 
ATOM     27 HH21 ARG A   5      -1.930   0.507 142.766  0.00  0.00    +0.255 HD
ATOM     28 HH22 ARG A   5      -3.012  -0.844 142.266  0.00  0.00    +0.255 HD
ATOM     29  NH1 ARG A   5      -4.622   0.587 140.985  0.00  0.00    -0.292 N 
ATOM     30 HH11 ARG A   5      -4.851  -0.427 141.001  0.00  0.00    +0.255 HD
ATOM     31 HH12 ARG A   5      -5.246   1.253 140.485  0.00  0.00    +0.255 HD
ENDBRANCH  22  23
ENDBRANCH  21  22
ENDBRANCH  20  21
ENDBRANCH  17  20
ENDBRANCH  14  17
ENDBRANCH  12  13
BRANCH  12  32
ATOM     32  CB  GLU A   4       1.112   8.797 139.869  0.00  0.00    +0.041 C 
BRANCH  32  33
ATOM     33  CG  GLU A   4       0.884   9.869 140.870  0.00  0.00    +0.116 C 
BRANCH  33  34
ATOM     34  CD  GLU A   4      -0.349  10.656 140.566  0.00  0.00    +0.365 C 
ATOM     35  OE2 GLU A   4      -1.467  10.091 140.625  0.00  0.00    -0.246 OA
ATOM     36  OE1 GLU A   4      -0.193  11.853 140.258  0.00  0.00    -0.246 OA
ENDBRANCH  33  34
ENDBRANCH  32  33
ENDBRANCH  12  32
ENDBRANCH  10  12
ENDBRANCH   7   8
BRANCH   1  37
ATOM     37  CA  PHE A   2       3.601   5.055 142.065  0.00  0.00    +0.153 C 
BRANCH  37  39
ATOM     38  C   LYS A   1       2.801   6.568 143.799  0.00  0.00    +0.238 C 
ATOM     39  N   PHE A   2       3.568   5.553 143.433  0.00  0.00    -0.297 N 
ATOM     40  H   PHE A   2       4.168   5.095 144.148  0.00  0.00    +0.150 HD
ATOM     41  O   LYS A   1       2.090   7.176 143.023  0.00  0.00    -0.274 OA
BRANCH  38  42
ATOM     42  CA  LYS A   1       2.847   6.962 145.269  0.00  0.00    +0.145 C 
BRANCH  42  43
ATOM     43  N   LYS A   1       3.011   8.397 145.400  0.00  0.00    -0.238 NA
ATOM     44  H   LYS A   1       2.405   9.029 144.840  0.00  0.00    +0.142 HD
ENDBRANCH  42  43
BRANCH  42  45
ATOM     45  CB  LYS A   1       1.541   6.576 145.941  0.00  0.00    +0.026 C 
BRANCH  45  46
ATOM     46  CG  LYS A   1       1.263   5.105 146.076  0.00  0.00    -0.000 C 
BRANCH  46  47
ATOM     47  CD  LYS A   1       0.260   4.932 147.228  0.00  0.00    -0.024 C 
BRANCH  47  48
ATOM     48  CE  LYS A   1      -0.633   3.749 147.044  0.00  0.00    -0.086 C 
BRANCH  48  49
ATOM     49  NZ  LYS A   1       0.074   2.480 147.252  0.00  0.00    +0.380 N 
ATOM     50  HZ1 LYS A   1       0.453   2.451 148.220  0.00  0.00    -0.089 HD
ATOM     51  HZ2 LYS A   1      -0.587   1.689 147.113  0.00  0.00    -0.089 HD
ATOM     52  HZ3 LYS A   1       0.855   2.404 146.570  0.00  0.00    -0.089 HD
ENDBRANCH  48  49
ENDBRANCH  47  48
ENDBRANCH  46  47
ENDBRANCH  45  46
ENDBRANCH  42  45
ENDBRANCH  38  42
ENDBRANCH  37  39
BRANCH  37  53
ATOM     53  CB  PHE A   2       5.045   5.033 141.533  0.00  0.00    +0.055 C 
BRANCH  53  54
ATOM     54  CG  PHE A   2       5.566   6.397 141.128  0.00  0.00    -0.020 A 
ATOM     55  CD2 PHE A   2       6.683   6.941 141.737  0.00  0.00    -0.004 A 
ATOM     56  CE2 PHE A   2       7.132   8.197 141.398  0.00  0.00    -0.000 A 
ATOM     57  CZ  PHE A   2       6.473   8.933 140.443  0.00  0.00    -0.000 A 
ATOM     58  CE1 PHE A   2       5.364   8.401 139.833  0.00  0.00    -0.000 A 
ATOM     59  CD1 PHE A   2       4.916   7.144 140.171  0.00  0.00    -0.004 A 
ENDBRANCH  53  54
ENDBRANCH  37  53
ENDBRANCH   1  37
TORSDOF 23
REMARK  Name = ../refined-set-2016/3tmk/3tmk_pocket.pdb
REMARK  319 active torsions:
REMARK  status: ('A' for Active; 'I' for Inactive)
REMARK    1  A    between atoms: _1  and  _3
REMARK    2  A    between atoms: _3  and  _4
REMARK    3  A    between atoms: _3  and  _6
REMARK    4  A    between atoms: _6  and  _7
REMARK    5  A    between atoms: _10  and  _12
REMARK    6  A    between atoms: _12  and  _13
REMARK    7  A    between atoms: _12  and  _15
REMARK    8  A    between atoms: _15  and  _16
REMARK    9  A    between atoms: _16  and  _17
REMARK   10  A    between atoms: _20  and  _22
REMARK   11  A    between atoms: _22  and  _23
REMARK   12  A    between atoms: _25  and  _27
REMARK   13  A    between atoms: _27  and  _28
REMARK   14  A    between atoms: _27  and  _30
REMARK   15  A    between atoms: _30  and  _31
REMARK   16  A    between atoms: _34  and  _36
REMARK   17  A    between atoms: _36  and  _37
REMARK   18  A    between atoms: _36  and  _39
REMARK   19  A    between atoms: _39  and  _40
REMARK   20  A    between atoms: _43  and  _45
REMARK   21  A    between atoms: _45  and  _46
REMARK   22  A    between atoms: _45  and  _48
REMARK   23  A    between atoms: _48  and  _49
REMARK   24  A    between atoms: _49  and  _50
REMARK   25  A    between atoms: _50  and  _51
REMARK   26  A    between atoms: _60  and  _62
REMARK   27  A    between atoms: _62  and  _63
REMARK   28  A    between atoms: _62  and  _65
REMARK   29  A    between atoms: _65  and  _66
REMARK   30  A    between atoms: _69  and  _71
REMARK   31  A    between atoms: _71  and  _72
REMARK   32  A    between atoms: _74  and  _76
REMARK   33  A    between atoms: _76  and  _77
REMARK   34  A    between atoms: _76  and  _79
REMARK   35  A    between atoms: _79  and  _80
REMARK   36  A    between atoms: _80  and  _81
REMARK   37  A    between atoms: _81  and  _82
REMARK   38  A    between atoms: _82  and  _83
REMARK   39  A    between atoms: _87  and  _89
REMARK   40  A    between atoms: _89  and  _90
REMARK   41  A    between atoms: _89  and  _92
REMARK   42  A    between atoms: _92  and  _93
REMARK   43  A    between atoms: _96  and  _98
REMARK   44  A    between atoms: _98  and  _99
REMARK   45  A    between atoms: _98  and  _101
REMARK   46  A    between atoms: _101  and  _102
REMARK   47  A    between atoms: _105  and  _107
REMARK   48  A    between atoms: _107  and  _108
REMARK   49  A    between atoms: _107  and  _110
REMARK   50  A    between atoms: _110  and  _111
REMARK   51  A    between atoms: _111  and  _112
REMARK   52  A    between atoms: _117  and  _119
REMARK   53  A    between atoms: _119  and  _120
REMARK   54  A    between atoms: _119  and  _122
REMARK   55  A    between atoms: _124  and  _126
REMARK   56  A    between atoms: _126  and  _127
REMARK   57  A    between atoms: _126  and  _129
REMARK   58  A    between atoms: _129  and  _130
REMARK   59  A    between atoms: _135  and  _137
REMARK   60  A    between atoms: _137  and  _138
REMARK   61  A    between atoms: _137  and  _140
REMARK   62  A    between atoms: _140  and  _141
REMARK   63  A    between atoms: _144  and  _146
REMARK   64  A    between atoms: _146  and  _147
REMARK   65  A    between atoms: _146  and  _149
REMARK   66  A    between atoms: _149  and  _150
REMARK   67  A    between atoms: _150  and  _151
REMARK   68  A    between atoms: _151  and  _152
REMARK   69  A    between atoms: _152  and  _153
REMARK   70  A    between atoms: _157  and  _159
REMARK   71  A    between atoms: _159  and  _160
REMARK   72  A    between atoms: _159  and  _162
REMARK   73  A    between atoms: _162  and  _163
REMARK   74  A    between atoms: _170  and  _171
REMARK   75  A    between atoms: _176  and  _178
REMARK   76  A    between atoms: _178  and  _179
REMARK   77  A    between atoms: _178  and  _181
REMARK   78  A    between atoms: _181  and  _182
REMARK   79  A    between atoms: _182  and  _183
REMARK   80  A    between atoms: _186  and  _188
REMARK   81  A    between atoms: _188  and  _189
REMARK   82  A    between atoms: _188  and  _191
REMARK   83  A    between atoms: _191  and  _192
REMARK   84  A    between atoms: _192  and  _193
REMARK   85  A    between atoms: _193  and  _194
REMARK   86  A    between atoms: _203  and  _205
REMARK   87  A    between atoms: _205  and  _206
REMARK   88  A    between atoms: _205  and  _208
REMARK   89  A    between atoms: _208  and  _209
REMARK   90  A    between atoms: _212  and  _214
REMARK   91  A    between atoms: _214  and  _215
REMARK   92  A    between atoms: _214  and  _217
REMARK   93  A    between atoms: _217  and  _218
REMARK   94  A    between atoms: _223  and  _225
REMARK   95  A    between atoms: _225  and  _226
REMARK   96  A    between atoms: _225  and  _228
REMARK   97  A    between atoms: _228  and  _229
REMARK   98  A    between atoms: _234  and  _235
REMARK   99  A    between atoms: _237  and  _239
REMARK  100  A    between atoms: _239  and  _240
REMARK  101  A    between atoms: _239  and  _242
REMARK  102  A    between atoms: _242  and  _243
REMARK  103  A    between atoms: _246  and  _248
REMARK  104  A    between atoms: _248  and  _249
REMARK  105  A    between atoms: _248  and  _251
REMARK  106  A    between atoms: _251  and  _252
REMARK  107  A    between atoms: _255  and  _257
REMARK  108  A    between atoms: _257  and  _258
REMARK  109  A    between atoms: _257  and  _260
REMARK  110  A    between atoms: _260  and  _261
REMARK  111  A    between atoms: _264  and  _266
REMARK  112  A    between atoms: _266  and  _267
REMARK  113  A    between atoms: _266  and  _269
REMARK  114  A    between atoms: _269  and  _270
REMARK  115  A    between atoms: _275  and  _277
REMARK  116  A    between atoms: _277  and  _278
REMARK  117  A    between atoms: _277  and  _280
REMARK  118  A    between atoms: _280  and  _281
REMARK  119  A    between atoms: _284  and  _286
REMARK  120  A    between atoms: _286  and  _287
REMARK  121  A    between atoms: _286  and  _289
REMARK  122  A    between atoms: _289  and  _290
REMARK  123  A    between atoms: _296  and  _298
REMARK  124  A    between atoms: _298  and  _299
REMARK  125  A    between atoms: _298  and  _301
REMARK  126  A    between atoms: _301  and  _302
REMARK  127  A    between atoms: _304  and  _306
REMARK  128  A    between atoms: _306  and  _307
REMARK  129  A    between atoms: _310  and  _312
REMARK  130  A    between atoms: _312  and  _313
REMARK  131  A    between atoms: _312  and  _315
REMARK  132  A    between atoms: _315  and  _316
REMARK  133  A    between atoms: _321  and  _323
REMARK  134  A    between atoms: _323  and  _324
REMARK  135  A    between atoms: _323  and  _326
REMARK  136  A    between atoms: _326  and  _327
REMARK  137  A    between atoms: _327  and  _328
REMARK  138  A    between atoms: _328  and  _329
REMARK  139  A    between atoms: _338  and  _340
REMARK  140  A    between atoms: _340  and  _341
REMARK  141  A    between atoms: _340  and  _343
REMARK  142  A    between atoms: _343  and  _344
REMARK  143  A    between atoms: _347  and  _349
REMARK  144  A    between atoms: _349  and  _350
REMARK  145  A    between atoms: _349  and  _352
REMARK  146  A    between atoms: _352  and  _353
REMARK  147  A    between atoms: _353  and  _354
REMARK  148  A    between atoms: _354  and  _355
REMARK  149  A    between atoms: _364  and  _366
REMARK  150  A    between atoms: _366  and  _367
REMARK  151  A    between atoms: _366  and  _369
REMARK  152  A    between atoms: _369  and  _370
REMARK  153  A    between atoms: _375  and  _376
REMARK  154  A    between atoms: _378  and  _380
REMARK  155  A    between atoms: _380  and  _381
REMARK  156  A    between atoms: _380  and  _383
REMARK  157  A    between atoms: _386  and  _388
REMARK  158  A    between atoms: _388  and  _389
REMARK  159  A    between atoms: _388  and  _391
REMARK  160  A    between atoms: _391  and  _392
REMARK  161  A    between atoms: _397  and  _398
REMARK  162  A    between atoms: _400  and  _402
REMARK  163  A    between atoms: _402  and  _403
REMARK  164  A    between atoms: _402  and  _405
REMARK  165  A    between atoms: _405  and  _406
REMARK  166  A    between atoms: _408  and  _410
REMARK  167  A    between atoms: _410  and  _411
REMARK  168  A    between atoms: _413  and  _415
REMARK  169  A    between atoms: _415  and  _416
REMARK  170  A    between atoms: _415  and  _418
REMARK  171  A    between atoms: _421  and  _423
REMARK  172  A    between atoms: _423  and  _424
REMARK  173  A    between atoms: _427  and  _429
REMARK  174  A    between atoms: _429  and  _430
REMARK  175  A    between atoms: _429  and  _432
REMARK  176  A    between atoms: _432  and  _433
REMARK  177  A    between atoms: _438  and  _439
REMARK  178  A    between atoms: _441  and  _443
REMARK  179  A    between atoms: _443  and  _444
REMARK  180  A    between atoms: _443  and  _446
REMARK  181  A    between atoms: _446  and  _447
REMARK  182  A    between atoms: _449  and  _451
REMARK  183  A    between atoms: _451  and  _452
REMARK  184  A    between atoms: _455  and  _457
REMARK  185  A    between atoms: _457  and  _458
REMARK  186  A    between atoms: _461  and  _463
REMARK  187  A    between atoms: _463  and  _464
REMARK  188  A    between atoms: _463  and  _466
REMARK  189  A    between atoms: _466  and  _467
REMARK  190  A    between atoms: _467  and  _468
REMARK  191  A    between atoms: _468  and  _469
REMARK  192  A    between atoms: _469  and  _470
REMARK  193  A    between atoms: _474  and  _476
REMARK  194  A    between atoms: _476  and  _477
REMARK  195  A    between atoms: _476  and  _479
REMARK  196  A    between atoms: _479  and  _480
REMARK  197  A    between atoms: _483  and  _485
REMARK  198  A    between atoms: _485  and  _486
REMARK  199  A    between atoms: _485  and  _488
REMARK  200  A    between atoms: _488  and  _489
REMARK  201  A    between atoms: _492  and  _494
REMARK  202  A    between atoms: _494  and  _495
REMARK  203  A    between atoms: _494  and  _497
REMARK  204  A    between atoms: _497  and  _498
REMARK  205  A    between atoms: _501  and  _503
REMARK  206  A    between atoms: _503  and  _504
REMARK  207  A    between atoms: _503  and  _506
REMARK  208  A    between atoms: _506  and  _507
REMARK  209  A    between atoms: _512  and  _514
REMARK  210  A    between atoms: _514  and  _515
REMARK  211  A    between atoms: _514  and  _517
REMARK  212  A    between atoms: _517  and  _518
REMARK  213  A    between atoms: _523  and  _525
REMARK  214  A    between atoms: _525  and  _526
REMARK  215  A    between atoms: _529  and  _531
REMARK  216  A    between atoms: _531  and  _532
REMARK  217  A    between atoms: _531  and  _534
REMARK  218  A    between atoms: _534  and  _535
REMARK  219  A    between atoms: _535  and  _536
REMARK  220  A    between atoms: _539  and  _541
REMARK  221  A    between atoms: _541  and  _542
REMARK  222  A    between atoms: _541  and  _544
REMARK  223  A    between atoms: _544  and  _545
REMARK  224  A    between atoms: _545  and  _546
REMARK  225  A    between atoms: _546  and  _547
REMARK  226  A    between atoms: _547  and  _548
REMARK  227  A    between atoms: _552  and  _554
REMARK  228  A    between atoms: _554  and  _555
REMARK  229  A    between atoms: _554  and  _557
REMARK  230  A    between atoms: _557  and  _558
REMARK  231  A    between atoms: _560  and  _562
REMARK  232  A    between atoms: _562  and  _563
REMARK  233  A    between atoms: _565  and  _567
REMARK  234  A    between atoms: _567  and  _568
REMARK  235  A    between atoms: _567  and  _570
REMARK  236  A    between atoms: _570  and  _571
REMARK  237  A    between atoms: _574  and  _576
REMARK  238  A    between atoms: _576  and  _577
REMARK  239  A    between atoms: _576  and  _579
REMARK  240  A    between atoms: _579  and  _580
REMARK  241  A    between atoms: _580  and  _581
REMARK  242  A    between atoms: _584  and  _586
REMARK  243  A    between atoms: _586  and  _587
REMARK  244  A    between atoms: _586  and  _589
REMARK  245  A    between atoms: _589  and  _590
REMARK  246  A    between atoms: _590  and  _591
REMARK  247  A    between atoms: _591  and  _592
REMARK  248  A    between atoms: _601  and  _603
REMARK  249  A    between atoms: _603  and  _604
REMARK  250  A    between atoms: _603  and  _606
REMARK  251  A    between atoms: _606  and  _607
REMARK  252  A    between atoms: _612  and  _613
REMARK  253  A    between atoms: _615  and  _617
REMARK  254  A    between atoms: _617  and  _618
REMARK  255  A    between atoms: _617  and  _620
REMARK  256  A    between atoms: _620  and  _621
REMARK  257  A    between atoms: _621  and  _622
REMARK  258  A    between atoms: _625  and  _627
REMARK  259  A    between atoms: _627  and  _628
REMARK  260  A    between atoms: _627  and  _630
REMARK  261  A    between atoms: _630  and  _631
REMARK  262  A    between atoms: _634  and  _636
REMARK  263  A    between atoms: _636  and  _637
REMARK  264  A    between atoms: _636  and  _639
REMARK  265  A    between atoms: _639  and  _640
REMARK  266  A    between atoms: _646  and  _648
REMARK  267  A    between atoms: _648  and  _649
REMARK  268  A    between atoms: _648  and  _651
REMARK  269  A    between atoms: _651  and  _652
REMARK  270  A    between atoms: _652  and  _653
REMARK  271  A    between atoms: _658  and  _660
REMARK  272  A    between atoms: _660  and  _661
REMARK  273  A    between atoms: _660  and  _663
REMARK  274  A    between atoms: _666  and  _668
REMARK  275  A    between atoms: _668  and  _669
REMARK  276  A    between atoms: _668  and  _671
REMARK  277  A    between atoms: _671  and  _672
REMARK  278  A    between atoms: _678  and  _680
REMARK  279  A    between atoms: _680  and  _681
REMARK  280  A    between atoms: _680  and  _683
REMARK  281  A    between atoms: _686  and  _688
REMARK  282  A    between atoms: _688  and  _689
REMARK  283  A    between atoms: _688  and  _691
REMARK  284  A    between atoms: _691  and  _692
REMARK  285  A    between atoms: _695  and  _697
REMARK  286  A    between atoms: _697  and  _698
REMARK  287  A    between atoms: _697  and  _700
REMARK  288  A    between atoms: _700  and  _701
REMARK  289  A    between atoms: _706  and  _708
REMARK  290  A    between atoms: _708  and  _709
REMARK  291  A    between atoms: _708  and  _711
REMARK  292  A    between atoms: _711  and  _712
REMARK  293  A    between atoms: _712  and  _713
REMARK  294  A    between atoms: _713  and  _714
REMARK  295  A    between atoms: _714  and  _715
REMARK  296  A    between atoms: _719  and  _721
REMARK  297  A    between atoms: _721  and  _722
REMARK  298  A    between atoms: _724  and  _726
REMARK  299  A    between atoms: _726  and  _727
REMARK  300  A    between atoms: _726  and  _729
REMARK  301  A    between atoms: _729  and  _730
REMARK  302  A    between atoms: _733  and  _735
REMARK  303  A    between atoms: _735  and  _736
REMARK  304  A    between atoms: _735  and  _738
REMARK  305  A    between atoms: _738  and  _739
REMARK  306  A    between atoms: _739  and  _740
REMARK  307  A    between atoms: _745  and  _747
REMARK  308  A    between atoms: _747  and  _748
REMARK  309  A    between atoms: _747  and  _750
REMARK  310  A    between atoms: _750  and  _751
REMARK  311  A    between atoms: _751  and  _752
REMARK  312  A    between atoms: _755  and  _757
REMARK  313  A    between atoms: _757  and  _758
REMARK  314  A    between atoms: _757  and  _760
REMARK  315  A    between atoms: _763  and  _765
REMARK  316  A    between atoms: _765  and  _766
REMARK  317  A    between atoms: _765  and  _768
REMARK  318  A    between atoms: _768  and  _769
REMARK  319  A    between atoms: _769  and  _770
REMARK                            x       y       z     vdW  Elec       q    Type
REMARK                         _______ _______ _______ _____ _____    ______ ____
ROOT
ATOM      1  C   ILE A   1      -2.981   0.772 135.455  0.00  0.00    +0.238 C 
ATOM      2  N   ASN A   2      -3.809   1.675 135.977  0.00  0.00    -0.298 N 
ATOM      3  H   ASN A   2      -3.702   2.670 135.694  0.00  0.00    +0.150 HD
ATOM      4  O   ILE A   1      -3.034  -0.422 135.726  0.00  0.00    -0.274 OA
ENDROOT
BRANCH   1   5
ATOM      5  CA  ILE A   1      -1.947   1.325 134.454  0.00  0.00    +0.145 C 
BRANCH   5   6
ATOM      6  N   ILE A   1      -2.642   2.281 133.588  0.00  0.00    -0.238 NA
ATOM      7  H   ILE A   1      -2.377   3.286 133.609  0.00  0.00    +0.142 HD
ENDBRANCH   5   6
BRANCH   5   8
ATOM      8  CB  ILE A   1      -0.781   2.034 135.227  0.00  0.00    +0.025 C 
ATOM      9  CG2 ILE A   1      -0.268   1.133 136.367  0.00  0.00    +0.002 C 
BRANCH   8  10
ATOM     10  CG1 ILE A   1       0.346   2.413 134.240  0.00  0.00    +0.002 C 
ATOM     11  CD1 ILE A   1       1.233   3.570 134.698  0.00  0.00    +0.000 C 
ENDBRANCH   8  10
ENDBRANCH   5   8
ENDBRANCH   1   5
BRANCH   2  12
ATOM     12  CA  ASN A   2      -4.856   1.330 136.926  0.00  0.00    +0.146 C 
BRANCH  12  13
ATOM     13  C   ASN A   2      -5.774   0.258 136.346  0.00  0.00    +0.227 C 
ATOM     14  O   ASN A   2      -5.997  -0.791 136.969  0.00  0.00    -0.286 OA
ENDBRANCH  12  13
BRANCH  12  15
ATOM     15  CB  ASN A   2      -5.655   2.587 137.275  0.00  0.00    +0.112 C 
BRANCH  15  16
ATOM     16  CG  ASN A   2      -6.697   2.329 138.354  0.00  0.00    +0.222 C 
ATOM     17  OD1 ASN A   2      -6.397   1.731 139.406  0.00  0.00    -0.275 OA
ATOM     18  ND2 ASN A   2      -7.934   2.755 138.094  0.00  0.00    -0.329 N 
ATOM     19 HD21 ASN A   2      -8.696   2.592 138.783  0.00  0.00    +0.145 HD
ATOM     20 HD22 ASN A   2      -8.137   3.250 137.202  0.00  0.00    +0.145 HD
ENDBRANCH  15  16
ENDBRANCH  12  15
ENDBRANCH   2  12
TORSDOF 8
REMARK  Name = ../refined-set-2016/3tmk/3tmk_pocket.pdb
REMARK  319 active torsions:
REMARK  status: ('A' for Active; 'I' for Inactive)
REMARK    1  A    between atoms: _1  and  _3
REMARK    2  A    between atoms: _3  and  _4
REMARK    3  A    between atoms: _3  and  _6
REMARK    4  A    between atoms: _6  and  _7
REMARK    5  A    between atoms: _10  and  _12
REMARK    6  A    between atoms: _12  and  _13
REMARK    7  A    between atoms: _12  and  _15
REMARK    8  A    between atoms: _15  and  _16
REMARK    9  A    between atoms: _16  and  _17
REMARK   10  A    between atoms: _20  and  _22
REMARK   11  A    between atoms: _22  and  _23
REMARK   12  A    between atoms: _25  and  _27
REMARK   13  A    between atoms: _27  and  _28
REMARK   14  A    between atoms: _27  and  _30
REMARK   15  A    between atoms: _30  and  _31
REMARK   16  A    between atoms: _34  and  _36
REMARK   17  A    between atoms: _36  and  _37
REMARK   18  A    between atoms: _36  and  _39
REMARK   19  A    between atoms: _39  and  _40
REMARK   20  A    between atoms: _43  and  _45
REMARK   21  A    between atoms: _45  and  _46
REMARK   22  A    between atoms: _45  and  _48
REMARK   23  A    between atoms: _48  and  _49
REMARK   24  A    between atoms: _49  and  _50
REMARK   25  A    between atoms: _50  and  _51
REMARK   26  A    between atoms: _60  and  _62
REMARK   27  A    between atoms: _62  and  _63
REMARK   28  A    between atoms: _62  and  _65
REMARK   29  A    between atoms: _65  and  _66
REMARK   30  A    between atoms: _69  and  _71
REMARK   31  A    between atoms: _71  and  _72
REMARK   32  A    between atoms: _74  and  _76
REMARK   33  A    between atoms: _76  and  _77
REMARK   34  A    between atoms: _76  and  _79
REMARK   35  A    between atoms: _79  and  _80
REMARK   36  A    between atoms: _80  and  _81
REMARK   37  A    between atoms: _81  and  _82
REMARK   38  A    between atoms: _82  and  _83
REMARK   39  A    between atoms: _87  and  _89
REMARK   40  A    between atoms: _89  and  _90
REMARK   41  A    between atoms: _89  and  _92
REMARK   42  A    between atoms: _92  and  _93
REMARK   43  A    between atoms: _96  and  _98
REMARK   44  A    between atoms: _98  and  _99
REMARK   45  A    between atoms: _98  and  _101
REMARK   46  A    between atoms: _101  and  _102
REMARK   47  A    between atoms: _105  and  _107
REMARK   48  A    between atoms: _107  and  _108
REMARK   49  A    between atoms: _107  and  _110
REMARK   50  A    between atoms: _110  and  _111
REMARK   51  A    between atoms: _111  and  _112
REMARK   52  A    between atoms: _117  and  _119
REMARK   53  A    between atoms: _119  and  _120
REMARK   54  A    between atoms: _119  and  _122
REMARK   55  A    between atoms: _124  and  _126
REMARK   56  A    between atoms: _126  and  _127
REMARK   57  A    between atoms: _126  and  _129
REMARK   58  A    between atoms: _129  and  _130
REMARK   59  A    between atoms: _135  and  _137
REMARK   60  A    between atoms: _137  and  _138
REMARK   61  A    between atoms: _137  and  _140
REMARK   62  A    between atoms: _140  and  _141
REMARK   63  A    between atoms: _144  and  _146
REMARK   64  A    between atoms: _146  and  _147
REMARK   65  A    between atoms: _146  and  _149
REMARK   66  A    between atoms: _149  and  _150
REMARK   67  A    between atoms: _150  and  _151
REMARK   68  A    between atoms: _151  and  _152
REMARK   69  A    between atoms: _152  and  _153
REMARK   70  A    between atoms: _157  and  _159
REMARK   71  A    between atoms: _159  and  _160
REMARK   72  A    between atoms: _159  and  _162
REMARK   73  A    between atoms: _162  and  _163
REMARK   74  A    between atoms: _170  and  _171
REMARK   75  A    between atoms: _176  and  _178
REMARK   76  A    between atoms: _178  and  _179
REMARK   77  A    between atoms: _178  and  _181
REMARK   78  A    between atoms: _181  and  _182
REMARK   79  A    between atoms: _182  and  _183
REMARK   80  A    between atoms: _186  and  _188
REMARK   81  A    between atoms: _188  and  _189
REMARK   82  A    between atoms: _188  and  _191
REMARK   83  A    between atoms: _191  and  _192
REMARK   84  A    between atoms: _192  and  _193
REMARK   85  A    between atoms: _193  and  _194
REMARK   86  A    between atoms: _203  and  _205
REMARK   87  A    between atoms: _205  and  _206
REMARK   88  A    between atoms: _205  and  _208
REMARK   89  A    between atoms: _208  and  _209
REMARK   90  A    between atoms: _212  and  _214
REMARK   91  A    between atoms: _214  and  _215
REMARK   92  A    between atoms: _214  and  _217
REMARK   93  A    between atoms: _217  and  _218
REMARK   94  A    between atoms: _223  and  _225
REMARK   95  A    between atoms: _225  and  _226
REMARK   96  A    between atoms: _225  and  _228
REMARK   97  A    between atoms: _228  and  _229
REMARK   98  A    between atoms: _234  and  _235
REMARK   99  A    between atoms: _237  and  _239
REMARK  100  A    between atoms: _239  and  _240
REMARK  101  A    between atoms: _239  and  _242
REMARK  102  A    between atoms: _242  and  _243
REMARK  103  A    between atoms: _246  and  _248
REMARK  104  A    between atoms: _248  and  _249
REMARK  105  A    between atoms: _248  and  _251
REMARK  106  A    between atoms: _251  and  _252
REMARK  107  A    between atoms: _255  and  _257
REMARK  108  A    between atoms: _257  and  _258
REMARK  109  A    between atoms: _257  and  _260
REMARK  110  A    between atoms: _260  and  _261
REMARK  111  A    between atoms: _264  and  _266
REMARK  112  A    between atoms: _266  and  _267
REMARK  113  A    between atoms: _266  and  _269
REMARK  114  A    between atoms: _269  and  _270
REMARK  115  A    between atoms: _275  and  _277
REMARK  116  A    between atoms: _277  and  _278
REMARK  117  A    between atoms: _277  and  _280
REMARK  118  A    between atoms: _280  and  _281
REMARK  119  A    between atoms: _284  and  _286
REMARK  120  A    between atoms: _286  and  _287
REMARK  121  A    between atoms: _286  and  _289
REMARK  122  A    between atoms: _289  and  _290
REMARK  123  A    between atoms: _296  and  _298
REMARK  124  A    between atoms: _298  and  _299
REMARK  125  A    between atoms: _298  and  _301
REMARK  126  A    between atoms: _301  and  _302
REMARK  127  A    between atoms: _304  and  _306
REMARK  128  A    between atoms: _306  and  _307
REMARK  129  A    between atoms: _310  and  _312
REMARK  130  A    between atoms: _312  and  _313
REMARK  131  A    between atoms: _312  and  _315
REMARK  132  A    between atoms: _315  and  _316
REMARK  133  A    between atoms: _321  and  _323
REMARK  134  A    between atoms: _323  and  _324
REMARK  135  A    between atoms: _323  and  _326
REMARK  136  A    between atoms: _326  and  _327
REMARK  137  A    between atoms: _327  and  _328
REMARK  138  A    between atoms: _328  and  _329
REMARK  139  A    between atoms: _338  and  _340
REMARK  140  A    between atoms: _340  and  _341
REMARK  141  A    between atoms: _340  and  _343
REMARK  142  A    between atoms: _343  and  _344
REMARK  143  A    between atoms: _347  and  _349
REMARK  144  A    between atoms: _349  and  _350
REMARK  145  A    between atoms: _349  and  _352
REMARK  146  A    between atoms: _352  and  _353
REMARK  147  A    between atoms: _353  and  _354
REMARK  148  A    between atoms: _354  and  _355
REMARK  149  A    between atoms: _364  and  _366
REMARK  150  A    between atoms: _366  and  _367
REMARK  151  A    between atoms: _366  and  _369
REMARK  152  A    between atoms: _369  and  _370
REMARK  153  A    between atoms: _375  and  _376
REMARK  154  A    between atoms: _378  and  _380
REMARK  155  A    between atoms: _380  and  _381
REMARK  156  A    between atoms: _380  and  _383
REMARK  157  A    between atoms: _386  and  _388
REMARK  158  A    between atoms: _388  and  _389
REMARK  159  A    between atoms: _388  and  _391
REMARK  160  A    between atoms: _391  and  _392
REMARK  161  A    between atoms: _397  and  _398
REMARK  162  A    between atoms: _400  and  _402
REMARK  163  A    between atoms: _402  and  _403
REMARK  164  A    between atoms: _402  and  _405
REMARK  165  A    between atoms: _405  and  _406
REMARK  166  A    between atoms: _408  and  _410
REMARK  167  A    between atoms: _410  and  _411
REMARK  168  A    between atoms: _413  and  _415
REMARK  169  A    between atoms: _415  and  _416
REMARK  170  A    between atoms: _415  and  _418
REMARK  171  A    between atoms: _421  and  _423
REMARK  172  A    between atoms: _423  and  _424
REMARK  173  A    between atoms: _427  and  _429
REMARK  174  A    between atoms: _429  and  _430
REMARK  175  A    between atoms: _429  and  _432
REMARK  176  A    between atoms: _432  and  _433
REMARK  177  A    between atoms: _438  and  _439
REMARK  178  A    between atoms: _441  and  _443
REMARK  179  A    between atoms: _443  and  _444
REMARK  180  A    between atoms: _443  and  _446
REMARK  181  A    between atoms: _446  and  _447
REMARK  182  A    between atoms: _449  and  _451
REMARK  183  A    between atoms: _451  and  _452
REMARK  184  A    between atoms: _455  and  _457
REMARK  185  A    between atoms: _457  and  _458
REMARK  186  A    between atoms: _461  and  _463
REMARK  187  A    between atoms: _463  and  _464
REMARK  188  A    between atoms: _463  and  _466
REMARK  189  A    between atoms: _466  and  _467
REMARK  190  A    between atoms: _467  and  _468
REMARK  191  A    between atoms: _468  and  _469
REMARK  192  A    between atoms: _469  and  _470
REMARK  193  A    between atoms: _474  and  _476
REMARK  194  A    between atoms: _476  and  _477
REMARK  195  A    between atoms: _476  and  _479
REMARK  196  A    between atoms: _479  and  _480
REMARK  197  A    between atoms: _483  and  _485
REMARK  198  A    between atoms: _485  and  _486
REMARK  199  A    between atoms: _485  and  _488
REMARK  200  A    between atoms: _488  and  _489
REMARK  201  A    between atoms: _492  and  _494
REMARK  202  A    between atoms: _494  and  _495
REMARK  203  A    between atoms: _494  and  _497
REMARK  204  A    between atoms: _497  and  _498
REMARK  205  A    between atoms: _501  and  _503
REMARK  206  A    between atoms: _503  and  _504
REMARK  207  A    between atoms: _503  and  _506
REMARK  208  A    between atoms: _506  and  _507
REMARK  209  A    between atoms: _512  and  _514
REMARK  210  A    between atoms: _514  and  _515
REMARK  211  A    between atoms: _514  and  _517
REMARK  212  A    between atoms: _517  and  _518
REMARK  213  A    between atoms: _523  and  _525
REMARK  214  A    between atoms: _525  and  _526
REMARK  215  A    between atoms: _529  and  _531
REMARK  216  A    between atoms: _531  and  _532
REMARK  217  A    between atoms: _531  and  _534
REMARK  218  A    between atoms: _534  and  _535
REMARK  219  A    between atoms: _535  and  _536
REMARK  220  A    between atoms: _539  and  _541
REMARK  221  A    between atoms: _541  and  _542
REMARK  222  A    between atoms: _541  and  _544
REMARK  223  A    between atoms: _544  and  _545
REMARK  224  A    between atoms: _545  and  _546
REMARK  225  A    between atoms: _546  and  _547
REMARK  226  A    between atoms: _547  and  _548
REMARK  227  A    between atoms: _552  and  _554
REMARK  228  A    between atoms: _554  and  _555
REMARK  229  A    between atoms: _554  and  _557
REMARK  230  A    between atoms: _557  and  _558
REMARK  231  A    between atoms: _560  and  _562
REMARK  232  A    between atoms: _562  and  _563
REMARK  233  A    between atoms: _565  and  _567
REMARK  234  A    between atoms: _567  and  _568
REMARK  235  A    between atoms: _567  and  _570
REMARK  236  A    between atoms: _570  and  _571
REMARK  237  A    between atoms: _574  and  _576
REMARK  238  A    between atoms: _576  and  _577
REMARK  239  A    between atoms: _576  and  _579
REMARK  240  A    between atoms: _579  and  _580
REMARK  241  A    between atoms: _580  and  _581
REMARK  242  A    between atoms: _584  and  _586
REMARK  243  A    between atoms: _586  and  _587
REMARK  244  A    between atoms: _586  and  _589
REMARK  245  A    between atoms: _589  and  _590
REMARK  246  A    between atoms: _590  and  _591
REMARK  247  A    between atoms: _591  and  _592
REMARK  248  A    between atoms: _601  and  _603
REMARK  249  A    between atoms: _603  and  _604
REMARK  250  A    between atoms: _603  and  _606
REMARK  251  A    between atoms: _606  and  _607
REMARK  252  A    between atoms: _612  and  _613
REMARK  253  A    between atoms: _615  and  _617
REMARK  254  A    between atoms: _617  and  _618
REMARK  255  A    between atoms: _617  and  _620
REMARK  256  A    between atoms: _620  and  _621
REMARK  257  A    between atoms: _621  and  _622
REMARK  258  A    between atoms: _625  and  _627
REMARK  259  A    between atoms: _627  and  _628
REMARK  260  A    between atoms: _627  and  _630
REMARK  261  A    between atoms: _630  and  _631
REMARK  262  A    between atoms: _634  and  _636
REMARK  263  A    between atoms: _636  and  _637
REMARK  264  A    between atoms: _636  and  _639
REMARK  265  A    between atoms: _639  and  _640
REMARK  266  A    between atoms: _646  and  _648
REMARK  267  A    between atoms: _648  and  _649
REMARK  268  A    between atoms: _648  and  _651
REMARK  269  A    between atoms: _651  and  _652
REMARK  270  A    between atoms: _652  and  _653
REMARK  271  A    between atoms: _658  and  _660
REMARK  272  A    between atoms: _660  and  _661
REMARK  273  A    between atoms: _660  and  _663
REMARK  274  A    between atoms: _666  and  _668
REMARK  275  A    between atoms: _668  and  _669
REMARK  276  A    between atoms: _668  and  _671
REMARK  277  A    between atoms: _671  and  _672
REMARK  278  A    between atoms: _678  and  _680
REMARK  279  A    between atoms: _680  and  _681
REMARK  280  A    between atoms: _680  and  _683
REMARK  281  A    between atoms: _686  and  _688
REMARK  282  A    between atoms: _688  and  _689
REMARK  283  A    between atoms: _688  and  _691
REMARK  284  A    between atoms: _691  and  _692
REMARK  285  A    between atoms: _695  and  _697
REMARK  286  A    between atoms: _697  and  _698
REMARK  287  A    between atoms: _697  and  _700
REMARK  288  A    between atoms: _700  and  _701
REMARK  289  A    between atoms: _706  and  _708
REMARK  290  A    between atoms: _708  and  _709
REMARK  291  A    between atoms: _708  and  _711
REMARK  292  A    between atoms: _711  and  _712
REMARK  293  A    between atoms: _712  and  _713
REMARK  294  A    between atoms: _713  and  _714
REMARK  295  A    between atoms: _714  and  _715
REMARK  296  A    between atoms: _719  and  _721
REMARK  297  A    between atoms: _721  and  _722
REMARK  298  A    between atoms: _724  and  _726
REMARK  299  A    between atoms: _726  and  _727
REMARK  300  A    between atoms: _726  and  _729
REMARK  301  A    between atoms: _729  and  _730
REMARK  302  A    between atoms: _733  and  _735
REMARK  303  A    between atoms: _735  and  _736
REMARK  304  A    between atoms: _735  and  _738
REMARK  305  A    between atoms: _738  and  _739
REMARK  306  A    between atoms: _739  and  _740
REMARK  307  A    between atoms: _745  and  _747
REMARK  308  A    between atoms: _747  and  _748
REMARK  309  A    between atoms: _747  and  _750
REMARK  310  A    between atoms: _750  and  _751
REMARK  311  A    between atoms: _751  and  _752
REMARK  312  A    between atoms: _755  and  _757
REMARK  313  A    between atoms: _757  and  _758
REMARK  314  A    between atoms: _757  and  _760
REMARK  315  A    between atoms: _763  and  _765
REMARK  316  A    between atoms: _765  and  _766
REMARK  317  A    between atoms: _765  and  _768
REMARK  318  A    between atoms: _768  and  _769
REMARK  319  A    between atoms: _769  and  _770
REMARK                            x       y       z     vdW  Elec       q    Type
REMARK                         _______ _______ _______ _____ _____    ______ ____
ROOT
ATOM      1  C   TYR A   1      -4.360  -3.801 135.130  0.00  0.00    +0.239 C 
ATOM      2  N   LEU A   2      -4.051  -3.083 136.205  0.00  0.00    -0.297 N 
ATOM      3  H   LEU A   2      -3.935  -2.054 136.110  0.00  0.00    +0.150 HD
ATOM      4  O   TYR A   1      -4.573  -5.012 135.170  0.00  0.00    -0.274 OA
ENDROOT
BRANCH   1   5
ATOM      5  CA  TYR A   1      -4.461  -3.023 133.820  0.00  0.00    +0.149 C 
BRANCH   5   6
ATOM      6  N   TYR A   1      -5.253  -1.815 133.994  0.00  0.00    -0.238 NA
ATOM      7  H   TYR A   1      -4.802  -0.894 133.821  0.00  0.00    +0.142 HD
ENDBRANCH   5   6
BRANCH   5   8
ATOM      8  CB  TYR A   1      -3.053  -2.635 133.339  0.00  0.00    +0.053 C 
BRANCH   8   9
ATOM      9  CG  TYR A   1      -2.096  -3.796 133.192  0.00  0.00    -0.020 A 
ATOM     10  CD2 TYR A   1      -1.255  -4.175 134.247  0.00  0.00    -0.001 A 
ATOM     11  CE2 TYR A   1      -0.389  -5.245 134.116  0.00  0.00    +0.036 A 
ATOM     12  CZ  TYR A   1      -0.350  -5.954 132.922  0.00  0.00    +0.134 A 
ATOM     13  CE1 TYR A   1      -1.174  -5.597 131.873  0.00  0.00    +0.036 A 
ATOM     14  CD1 TYR A   1      -2.036  -4.525 132.010  0.00  0.00    -0.001 A 
BRANCH  12  15
ATOM     15  OH  TYR A   1       0.541  -6.996 132.764  0.00  0.00    -0.506 OA
ATOM     16  HH  TYR A   1       0.434  -7.386 131.860  0.00  0.00    +0.292 HD
ENDBRANCH  12  15
ENDBRANCH   8   9
ENDBRANCH   5   8
ENDBRANCH   1   5
BRANCH   2  17
ATOM     17  CA  LEU A   2      -3.869  -3.702 137.519  0.00  0.00    +0.149 C 
BRANCH  17  18
ATOM     18  C   LEU A   2      -5.143  -4.221 138.134  0.00  0.00    +0.241 C 
ATOM     19  O   LEU A   2      -5.184  -5.328 138.655  0.00  0.00    -0.273 OA
ATOM     20  N   THR A   3      -6.189  -3.410 138.061  0.00  0.00    -0.296 N 
ATOM     21  H   THR A   3      -6.089  -2.501 137.566  0.00  0.00    +0.150 HD
BRANCH  20  22
ATOM     22  CA  THR A   3      -7.471  -3.754 138.653  0.00  0.00    +0.164 C 
BRANCH  22  23
ATOM     23  CB  THR A   3      -8.263  -2.499 138.901  0.00  0.00    +0.136 C 
ATOM     24  CG2 THR A   3      -7.515  -1.588 139.858  0.00  0.00    +0.034 C 
BRANCH  23  25
ATOM     25  OG1 THR A   3      -8.432  -1.816 137.657  0.00  0.00    -0.382 OA
ATOM     26  HG1 THR A   3      -7.544  -1.588 137.284  0.00  0.00    +0.210 HD
ENDBRANCH  23  25
ENDBRANCH  22  23
BRANCH  22  27
ATOM     27  C   THR A   3      -8.315  -4.712 137.831  0.00  0.00    +0.229 C 
ATOM     28  O   THR A   3      -9.146  -5.429 138.384  0.00  0.00    -0.286 OA
ENDBRANCH  22  27
ENDBRANCH  20  22
ENDBRANCH  17  18
BRANCH  17  29
ATOM     29  CB  LEU A   2      -3.229  -2.701 138.493  0.00  0.00    +0.029 C 
BRANCH  29  30
ATOM     30  CG  LEU A   2      -1.748  -2.429 138.245  0.00  0.00    +0.002 C 
ATOM     31  CD2 LEU A   2      -1.285  -1.286 139.092  0.00  0.00    +0.000 C 
ATOM     32  CD1 LEU A   2      -0.944  -3.673 138.537  0.00  0.00    +0.000 C 
ENDBRANCH  29  30
ENDBRANCH  17  29
ENDBRANCH   2  17
TORSDOF 13
REMARK  Name = ../refined-set-2016/3tmk/3tmk_pocket.pdb
REMARK  319 active torsions:
REMARK  status: ('A' for Active; 'I' for Inactive)
REMARK    1  A    between atoms: _1  and  _3
REMARK    2  A    between atoms: _3  and  _4
REMARK    3  A    between atoms: _3  and  _6
REMARK    4  A    between atoms: _6  and  _7
REMARK    5  A    between atoms: _10  and  _12
REMARK    6  A    between atoms: _12  and  _13
REMARK    7  A    between atoms: _12  and  _15
REMARK    8  A    between atoms: _15  and  _16
REMARK    9  A    between atoms: _16  and  _17
REMARK   10  A    between atoms: _20  and  _22
REMARK   11  A    between atoms: _22  and  _23
REMARK   12  A    between atoms: _25  and  _27
REMARK   13  A    between atoms: _27  and  _28
REMARK   14  A    between atoms: _27  and  _30
REMARK   15  A    between atoms: _30  and  _31
REMARK   16  A    between atoms: _34  and  _36
REMARK   17  A    between atoms: _36  and  _37
REMARK   18  A    between atoms: _36  and  _39
REMARK   19  A    between atoms: _39  and  _40
REMARK   20  A    between atoms: _43  and  _45
REMARK   21  A    between atoms: _45  and  _46
REMARK   22  A    between atoms: _45  and  _48
REMARK   23  A    between atoms: _48  and  _49
REMARK   24  A    between atoms: _49  and  _50
REMARK   25  A    between atoms: _50  and  _51
REMARK   26  A    between atoms: _60  and  _62
REMARK   27  A    between atoms: _62  and  _63
REMARK   28  A    between atoms: _62  and  _65
REMARK   29  A    between atoms: _65  and  _66
REMARK   30  A    between atoms: _69  and  _71
REMARK   31  A    between atoms: _71  and  _72
REMARK   32  A    between atoms: _74  and  _76
REMARK   33  A    between atoms: _76  and  _77
REMARK   34  A    between atoms: _76  and  _79
REMARK   35  A    between atoms: _79  and  _80
REMARK   36  A    between atoms: _80  and  _81
REMARK   37  A    between atoms: _81  and  _82
REMARK   38  A    between atoms: _82  and  _83
REMARK   39  A    between atoms: _87  and  _89
REMARK   40  A    between atoms: _89  and  _90
REMARK   41  A    between atoms: _89  and  _92
REMARK   42  A    between atoms: _92  and  _93
REMARK   43  A    between atoms: _96  and  _98
REMARK   44  A    between atoms: _98  and  _99
REMARK   45  A    between atoms: _98  and  _101
REMARK   46  A    between atoms: _101  and  _102
REMARK   47  A    between atoms: _105  and  _107
REMARK   48  A    between atoms: _107  and  _108
REMARK   49  A    between atoms: _107  and  _110
REMARK   50  A    between atoms: _110  and  _111
REMARK   51  A    between atoms: _111  and  _112
REMARK   52  A    between atoms: _117  and  _119
REMARK   53  A    between atoms: _119  and  _120
REMARK   54  A    between atoms: _119  and  _122
REMARK   55  A    between atoms: _124  and  _126
REMARK   56  A    between atoms: _126  and  _127
REMARK   57  A    between atoms: _126  and  _129
REMARK   58  A    between atoms: _129  and  _130
REMARK   59  A    between atoms: _135  and  _137
REMARK   60  A    between atoms: _137  and  _138
REMARK   61  A    between atoms: _137  and  _140
REMARK   62  A    between atoms: _140  and  _141
REMARK   63  A    between atoms: _144  and  _146
REMARK   64  A    between atoms: _146  and  _147
REMARK   65  A    between atoms: _146  and  _149
REMARK   66  A    between atoms: _149  and  _150
REMARK   67  A    between atoms: _150  and  _151
REMARK   68  A    between atoms: _151  and  _152
REMARK   69  A    between atoms: _152  and  _153
REMARK   70  A    between atoms: _157  and  _159
REMARK   71  A    between atoms: _159  and  _160
REMARK   72  A    between atoms: _159  and  _162
REMARK   73  A    between atoms: _162  and  _163
REMARK   74  A    between atoms: _170  and  _171
REMARK   75  A    between atoms: _176  and  _178
REMARK   76  A    between atoms: _178  and  _179
REMARK   77  A    between atoms: _178  and  _181
REMARK   78  A    between atoms: _181  and  _182
REMARK   79  A    between atoms: _182  and  _183
REMARK   80  A    between atoms: _186  and  _188
REMARK   81  A    between atoms: _188  and  _189
REMARK   82  A    between atoms: _188  and  _191
REMARK   83  A    between atoms: _191  and  _192
REMARK   84  A    between atoms: _192  and  _193
REMARK   85  A    between atoms: _193  and  _194
REMARK   86  A    between atoms: _203  and  _205
REMARK   87  A    between atoms: _205  and  _206
REMARK   88  A    between atoms: _205  and  _208
REMARK   89  A    between atoms: _208  and  _209
REMARK   90  A    between atoms: _212  and  _214
REMARK   91  A    between atoms: _214  and  _215
REMARK   92  A    between atoms: _214  and  _217
REMARK   93  A    between atoms: _217  and  _218
REMARK   94  A    between atoms: _223  and  _225
REMARK   95  A    between atoms: _225  and  _226
REMARK   96  A    between atoms: _225  and  _228
REMARK   97  A    between atoms: _228  and  _229
REMARK   98  A    between atoms: _234  and  _235
REMARK   99  A    between atoms: _237  and  _239
REMARK  100  A    between atoms: _239  and  _240
REMARK  101  A    between atoms: _239  and  _242
REMARK  102  A    between atoms: _242  and  _243
REMARK  103  A    between atoms: _246  and  _248
REMARK  104  A    between atoms: _248  and  _249
REMARK  105  A    between atoms: _248  and  _251
REMARK  106  A    between atoms: _251  and  _252
REMARK  107  A    between atoms: _255  and  _257
REMARK  108  A    between atoms: _257  and  _258
REMARK  109  A    between atoms: _257  and  _260
REMARK  110  A    between atoms: _260  and  _261
REMARK  111  A    between atoms: _264  and  _266
REMARK  112  A    between atoms: _266  and  _267
REMARK  113  A    between atoms: _266  and  _269
REMARK  114  A    between atoms: _269  and  _270
REMARK  115  A    between atoms: _275  and  _277
REMARK  116  A    between atoms: _277  and  _278
REMARK  117  A    between atoms: _277  and  _280
REMARK  118  A    between atoms: _280  and  _281
REMARK  119  A    between atoms: _284  and  _286
REMARK  120  A    between atoms: _286  and  _287
REMARK  121  A    between atoms: _286  and  _289
REMARK  122  A    between atoms: _289  and  _290
REMARK  123  A    between atoms: _296  and  _298
REMARK  124  A    between atoms: _298  and  _299
REMARK  125  A    between atoms: _298  and  _301
REMARK  126  A    between atoms: _301  and  _302
REMARK  127  A    between atoms: _304  and  _306
REMARK  128  A    between atoms: _306  and  _307
REMARK  129  A    between atoms: _310  and  _312
REMARK  130  A    between atoms: _312  and  _313
REMARK  131  A    between atoms: _312  and  _315
REMARK  132  A    between atoms: _315  and  _316
REMARK  133  A    between atoms: _321  and  _323
REMARK  134  A    between atoms: _323  and  _324
REMARK  135  A    between atoms: _323  and  _326
REMARK  136  A    between atoms: _326  and  _327
REMARK  137  A    between atoms: _327  and  _328
REMARK  138  A    between atoms: _328  and  _329
REMARK  139  A    between atoms: _338  and  _340
REMARK  140  A    between atoms: _340  and  _341
REMARK  141  A    between atoms: _340  and  _343
REMARK  142  A    between atoms: _343  and  _344
REMARK  143  A    between atoms: _347  and  _349
REMARK  144  A    between atoms: _349  and  _350
REMARK  145  A    between atoms: _349  and  _352
REMARK  146  A    between atoms: _352  and  _353
REMARK  147  A    between atoms: _353  and  _354
REMARK  148  A    between atoms: _354  and  _355
REMARK  149  A    between atoms: _364  and  _366
REMARK  150  A    between atoms: _366  and  _367
REMARK  151  A    between atoms: _366  and  _369
REMARK  152  A    between atoms: _369  and  _370
REMARK  153  A    between atoms: _375  and  _376
REMARK  154  A    between atoms: _378  and  _380
REMARK  155  A    between atoms: _380  and  _381
REMARK  156  A    between atoms: _380  and  _383
REMARK  157  A    between atoms: _386  and  _388
REMARK  158  A    between atoms: _388  and  _389
REMARK  159  A    between atoms: _388  and  _391
REMARK  160  A    between atoms: _391  and  _392
REMARK  161  A    between atoms: _397  and  _398
REMARK  162  A    between atoms: _400  and  _402
REMARK  163  A    between atoms: _402  and  _403
REMARK  164  A    between atoms: _402  and  _405
REMARK  165  A    between atoms: _405  and  _406
REMARK  166  A    between atoms: _408  and  _410
REMARK  167  A    between atoms: _410  and  _411
REMARK  168  A    between atoms: _413  and  _415
REMARK  169  A    between atoms: _415  and  _416
REMARK  170  A    between atoms: _415  and  _418
REMARK  171  A    between atoms: _421  and  _423
REMARK  172  A    between atoms: _423  and  _424
REMARK  173  A    between atoms: _427  and  _429
REMARK  174  A    between atoms: _429  and  _430
REMARK  175  A    between atoms: _429  and  _432
REMARK  176  A    between atoms: _432  and  _433
REMARK  177  A    between atoms: _438  and  _439
REMARK  178  A    between atoms: _441  and  _443
REMARK  179  A    between atoms: _443  and  _444
REMARK  180  A    between atoms: _443  and  _446
REMARK  181  A    between atoms: _446  and  _447
REMARK  182  A    between atoms: _449  and  _451
REMARK  183  A    between atoms: _451  and  _452
REMARK  184  A    between atoms: _455  and  _457
REMARK  185  A    between atoms: _457  and  _458
REMARK  186  A    between atoms: _461  and  _463
REMARK  187  A    between atoms: _463  and  _464
REMARK  188  A    between atoms: _463  and  _466
REMARK  189  A    between atoms: _466  and  _467
REMARK  190  A    between atoms: _467  and  _468
REMARK  191  A    between atoms: _468  and  _469
REMARK  192  A    between atoms: _469  and  _470
REMARK  193  A    between atoms: _474  and  _476
REMARK  194  A    between atoms: _476  and  _477
REMARK  195  A    between atoms: _476  and  _479
REMARK  196  A    between atoms: _479  and  _480
REMARK  197  A    between atoms: _483  and  _485
REMARK  198  A    between atoms: _485  and  _486
REMARK  199  A    between atoms: _485  and  _488
REMARK  200  A    between atoms: _488  and  _489
REMARK  201  A    between atoms: _492  and  _494
REMARK  202  A    between atoms: _494  and  _495
REMARK  203  A    between atoms: _494  and  _497
REMARK  204  A    between atoms: _497  and  _498
REMARK  205  A    between atoms: _501  and  _503
REMARK  206  A    between atoms: _503  and  _504
REMARK  207  A    between atoms: _503  and  _506
REMARK  208  A    between atoms: _506  and  _507
REMARK  209  A    between atoms: _512  and  _514
REMARK  210  A    between atoms: _514  and  _515
REMARK  211  A    between atoms: _514  and  _517
REMARK  212  A    between atoms: _517  and  _518
REMARK  213  A    between atoms: _523  and  _525
REMARK  214  A    between atoms: _525  and  _526
REMARK  215  A    between atoms: _529  and  _531
REMARK  216  A    between atoms: _531  and  _532
REMARK  217  A    between atoms: _531  and  _534
REMARK  218  A    between atoms: _534  and  _535
REMARK  219  A    between atoms: _535  and  _536
REMARK  220  A    between atoms: _539  and  _541
REMARK  221  A    between atoms: _541  and  _542
REMARK  222  A    between atoms: _541  and  _544
REMARK  223  A    between atoms: _544  and  _545
REMARK  224  A    between atoms: _545  and  _546
REMARK  225  A    between atoms: _546  and  _547
REMARK  226  A    between atoms: _547  and  _548
REMARK  227  A    between atoms: _552  and  _554
REMARK  228  A    between atoms: _554  and  _555
REMARK  229  A    between atoms: _554  and  _557
REMARK  230  A    between atoms: _557  and  _558
REMARK  231  A    between atoms: _560  and  _562
REMARK  232  A    between atoms: _562  and  _563
REMARK  233  A    between atoms: _565  and  _567
REMARK  234  A    between atoms: _567  and  _568
REMARK  235  A    between atoms: _567  and  _570
REMARK  236  A    between atoms: _570  and  _571
REMARK  237  A    between atoms: _574  and  _576
REMARK  238  A    between atoms: _576  and  _577
REMARK  239  A    between atoms: _576  and  _579
REMARK  240  A    between atoms: _579  and  _580
REMARK  241  A    between atoms: _580  and  _581
REMARK  242  A    between atoms: _584  and  _586
REMARK  243  A    between atoms: _586  and  _587
REMARK  244  A    between atoms: _586  and  _589
REMARK  245  A    between atoms: _589  and  _590
REMARK  246  A    between atoms: _590  and  _591
REMARK  247  A    between atoms: _591  and  _592
REMARK  248  A    between atoms: _601  and  _603
REMARK  249  A    between atoms: _603  and  _604
REMARK  250  A    between atoms: _603  and  _606
REMARK  251  A    between atoms: _606  and  _607
REMARK  252  A    between atoms: _612  and  _613
REMARK  253  A    between atoms: _615  and  _617
REMARK  254  A    between atoms: _617  and  _618
REMARK  255  A    between atoms: _617  and  _620
REMARK  256  A    between atoms: _620  and  _621
REMARK  257  A    between atoms: _621  and  _622
REMARK  258  A    between atoms: _625  and  _627
REMARK  259  A    between atoms: _627  and  _628
REMARK  260  A    between atoms: _627  and  _630
REMARK  261  A    between atoms: _630  and  _631
REMARK  262  A    between atoms: _634  and  _636
REMARK  263  A    between atoms: _636  and  _637
REMARK  264  A    between atoms: _636  and  _639
REMARK  265  A    between atoms: _639  and  _640
REMARK  266  A    between atoms: _646  and  _648
REMARK  267  A    between atoms: _648  and  _649
REMARK  268  A    between atoms: _648  and  _651
REMARK  269  A    between atoms: _651  and  _652
REMARK  270  A    between atoms: _652  and  _653
REMARK  271  A    between atoms: _658  and  _660
REMARK  272  A    between atoms: _660  and  _661
REMARK  273  A    between atoms: _660  and  _663
REMARK  274  A    between atoms: _666  and  _668
REMARK  275  A    between atoms: _668  and  _669
REMARK  276  A    between atoms: _668  and  _671
REMARK  277  A    between atoms: _671  and  _672
REMARK  278  A    between atoms: _678  and  _680
REMARK  279  A    between atoms: _680  and  _681
REMARK  280  A    between atoms: _680  and  _683
REMARK  281  A    between atoms: _686  and  _688
REMARK  282  A    between atoms: _688  and  _689
REMARK  283  A    between atoms: _688  and  _691
REMARK  284  A    between atoms: _691  and  _692
REMARK  285  A    between atoms: _695  and  _697
REMARK  286  A    between atoms: _697  and  _698
REMARK  287  A    between atoms: _697  and  _700
REMARK  288  A    between atoms: _700  and  _701
REMARK  289  A    between atoms: _706  and  _708
REMARK  290  A    between atoms: _708  and  _709
REMARK  291  A    between atoms: _708  and  _711
REMARK  292  A    between atoms: _711  and  _712
REMARK  293  A    between atoms: _712  and  _713
REMARK  294  A    between atoms: _713  and  _714
REMARK  295  A    between atoms: _714  and  _715
REMARK  296  A    between atoms: _719  and  _721
REMARK  297  A    between atoms: _721  and  _722
REMARK  298  A    between atoms: _724  and  _726
REMARK  299  A    between atoms: _726  and  _727
REMARK  300  A    between atoms: _726  and  _729
REMARK  301  A    between atoms: _729  and  _730
REMARK  302  A    between atoms: _733  and  _735
REMARK  303  A    between atoms: _735  and  _736
REMARK  304  A    between atoms: _735  and  _738
REMARK  305  A    between atoms: _738  and  _739
REMARK  306  A    between atoms: _739  and  _740
REMARK  307  A    between atoms: _745  and  _747
REMARK  308  A    between atoms: _747  and  _748
REMARK  309  A    between atoms: _747  and  _750
REMARK  310  A    between atoms: _750  and  _751
REMARK  311  A    between atoms: _751  and  _752
REMARK  312  A    between atoms: _755  and  _757
REMARK  313  A    between atoms: _757  and  _758
REMARK  314  A    between atoms: _757  and  _760
REMARK  315  A    between atoms: _763  and  _765
REMARK  316  A    between atoms: _765  and  _766
REMARK  317  A    between atoms: _765  and  _768
REMARK  318  A    between atoms: _768  and  _769
REMARK  319  A    between atoms: _769  and  _770
REMARK                            x       y       z     vdW  Elec       q    Type
REMARK                         _______ _______ _______ _____ _____    ______ ____
ROOT
ATOM      1  C   ILE A   1       3.956  -1.399 131.129  0.00  0.00    +0.238 C 
ATOM      2  O   ILE A   1       3.941  -0.388 131.848  0.00  0.00    -0.274 OA
ATOM      3  N   HIS A   2       5.059  -2.105 130.903  0.00  0.00    -0.298 N 
ATOM      4  H   HIS A   2       5.018  -2.942 130.288  0.00  0.00    +0.150 HD
ENDROOT
BRANCH   1   5
ATOM      5  CA  ILE A   1       2.685  -1.873 130.407  0.00  0.00    +0.145 C 
BRANCH   5   6
ATOM      6  N   ILE A   1       3.040  -2.268 129.038  0.00  0.00    -0.238 NA
ATOM      7  H   ILE A   1       2.959  -3.262 128.744  0.00  0.00    +0.142 HD
ENDBRANCH   5   6
BRANCH   5   8
ATOM      8  CB  ILE A   1       1.967  -3.033 131.194  0.00  0.00    +0.025 C 
ATOM      9  CG2 ILE A   1       2.886  -4.215 131.402  0.00  0.00    +0.002 C 
BRANCH   8  10
ATOM     10  CG1 ILE A   1       1.456  -2.515 132.545  0.00  0.00    +0.002 C 
ATOM     11  CD1 ILE A   1       0.614  -1.223 132.461  0.00  0.00    +0.000 C 
ENDBRANCH   8  10
ENDBRANCH   5   8
ENDBRANCH   1   5
BRANCH   3  12
ATOM     12  CA  HIS A   2       6.319  -1.718 131.507  0.00  0.00    +0.143 C 
BRANCH  12  13
ATOM     13  C   HIS A   2       6.669  -0.266 131.206  0.00  0.00    +0.227 C 
ATOM     14  O   HIS A   2       7.006   0.506 132.117  0.00  0.00    -0.286 OA
ENDBRANCH  12  13
BRANCH  12  15
ATOM     15  CB  HIS A   2       7.465  -2.606 131.010  0.00  0.00    +0.075 C 
BRANCH  15  16
ATOM     16  CG  HIS A   2       8.784  -2.275 131.641  0.00  0.00    +0.082 A 
ATOM     17  ND1 HIS A   2       9.138  -2.720 132.900  0.00  0.00    -0.227 NA
ATOM     18  CE1 HIS A   2      10.300  -2.191 133.237  0.00  0.00    +0.199 A 
ATOM     19  NE2 HIS A   2      10.717  -1.424 132.246  0.00  0.00    -0.221 NA
ATOM     20  CD2 HIS A   2       9.789  -1.461 131.235  0.00  0.00    +0.115 A 
ENDBRANCH  15  16
ENDBRANCH  12  15
ENDBRANCH   3  12
TORSDOF 8
REMARK  Name = ../refined-set-2016/3tmk/3tmk_pocket.pdb
REMARK  319 active torsions:
REMARK  status: ('A' for Active; 'I' for Inactive)
REMARK    1  A    between atoms: _1  and  _3
REMARK    2  A    between atoms: _3  and  _4
REMARK    3  A    between atoms: _3  and  _6
REMARK    4  A    between atoms: _6  and  _7
REMARK    5  A    between atoms: _10  and  _12
REMARK    6  A    between atoms: _12  and  _13
REMARK    7  A    between atoms: _12  and  _15
REMARK    8  A    between atoms: _15  and  _16
REMARK    9  A    between atoms: _16  and  _17
REMARK   10  A    between atoms: _20  and  _22
REMARK   11  A    between atoms: _22  and  _23
REMARK   12  A    between atoms: _25  and  _27
REMARK   13  A    between atoms: _27  and  _28
REMARK   14  A    between atoms: _27  and  _30
REMARK   15  A    between atoms: _30  and  _31
REMARK   16  A    between atoms: _34  and  _36
REMARK   17  A    between atoms: _36  and  _37
REMARK   18  A    between atoms: _36  and  _39
REMARK   19  A    between atoms: _39  and  _40
REMARK   20  A    between atoms: _43  and  _45
REMARK   21  A    between atoms: _45  and  _46
REMARK   22  A    between atoms: _45  and  _48
REMARK   23  A    between atoms: _48  and  _49
REMARK   24  A    between atoms: _49  and  _50
REMARK   25  A    between atoms: _50  and  _51
REMARK   26  A    between atoms: _60  and  _62
REMARK   27  A    between atoms: _62  and  _63
REMARK   28  A    between atoms: _62  and  _65
REMARK   29  A    between atoms: _65  and  _66
REMARK   30  A    between atoms: _69  and  _71
REMARK   31  A    between atoms: _71  and  _72
REMARK   32  A    between atoms: _74  and  _76
REMARK   33  A    between atoms: _76  and  _77
REMARK   34  A    between atoms: _76  and  _79
REMARK   35  A    between atoms: _79  and  _80
REMARK   36  A    between atoms: _80  and  _81
REMARK   37  A    between atoms: _81  and  _82
REMARK   38  A    between atoms: _82  and  _83
REMARK   39  A    between atoms: _87  and  _89
REMARK   40  A    between atoms: _89  and  _90
REMARK   41  A    between atoms: _89  and  _92
REMARK   42  A    between atoms: _92  and  _93
REMARK   43  A    between atoms: _96  and  _98
REMARK   44  A    between atoms: _98  and  _99
REMARK   45  A    between atoms: _98  and  _101
REMARK   46  A    between atoms: _101  and  _102
REMARK   47  A    between atoms: _105  and  _107
REMARK   48  A    between atoms: _107  and  _108
REMARK   49  A    between atoms: _107  and  _110
REMARK   50  A    between atoms: _110  and  _111
REMARK   51  A    between atoms: _111  and  _112
REMARK   52  A    between atoms: _117  and  _119
REMARK   53  A    between atoms: _119  and  _120
REMARK   54  A    between atoms: _119  and  _122
REMARK   55  A    between atoms: _124  and  _126
REMARK   56  A    between atoms: _126  and  _127
REMARK   57  A    between atoms: _126  and  _129
REMARK   58  A    between atoms: _129  and  _130
REMARK   59  A    between atoms: _135  and  _137
REMARK   60  A    between atoms: _137  and  _138
REMARK   61  A    between atoms: _137  and  _140
REMARK   62  A    between atoms: _140  and  _141
REMARK   63  A    between atoms: _144  and  _146
REMARK   64  A    between atoms: _146  and  _147
REMARK   65  A    between atoms: _146  and  _149
REMARK   66  A    between atoms: _149  and  _150
REMARK   67  A    between atoms: _150  and  _151
REMARK   68  A    between atoms: _151  and  _152
REMARK   69  A    between atoms: _152  and  _153
REMARK   70  A    between atoms: _157  and  _159
REMARK   71  A    between atoms: _159  and  _160
REMARK   72  A    between atoms: _159  and  _162
REMARK   73  A    between atoms: _162  and  _163
REMARK   74  A    between atoms: _170  and  _171
REMARK   75  A    between atoms: _176  and  _178
REMARK   76  A    between atoms: _178  and  _179
REMARK   77  A    between atoms: _178  and  _181
REMARK   78  A    between atoms: _181  and  _182
REMARK   79  A    between atoms: _182  and  _183
REMARK   80  A    between atoms: _186  and  _188
REMARK   81  A    between atoms: _188  and  _189
REMARK   82  A    between atoms: _188  and  _191
REMARK   83  A    between atoms: _191  and  _192
REMARK   84  A    between atoms: _192  and  _193
REMARK   85  A    between atoms: _193  and  _194
REMARK   86  A    between atoms: _203  and  _205
REMARK   87  A    between atoms: _205  and  _206
REMARK   88  A    between atoms: _205  and  _208
REMARK   89  A    between atoms: _208  and  _209
REMARK   90  A    between atoms: _212  and  _214
REMARK   91  A    between atoms: _214  and  _215
REMARK   92  A    between atoms: _214  and  _217
REMARK   93  A    between atoms: _217  and  _218
REMARK   94  A    between atoms: _223  and  _225
REMARK   95  A    between atoms: _225  and  _226
REMARK   96  A    between atoms: _225  and  _228
REMARK   97  A    between atoms: _228  and  _229
REMARK   98  A    between atoms: _234  and  _235
REMARK   99  A    between atoms: _237  and  _239
REMARK  100  A    between atoms: _239  and  _240
REMARK  101  A    between atoms: _239  and  _242
REMARK  102  A    between atoms: _242  and  _243
REMARK  103  A    between atoms: _246  and  _248
REMARK  104  A    between atoms: _248  and  _249
REMARK  105  A    between atoms: _248  and  _251
REMARK  106  A    between atoms: _251  and  _252
REMARK  107  A    between atoms: _255  and  _257
REMARK  108  A    between atoms: _257  and  _258
REMARK  109  A    between atoms: _257  and  _260
REMARK  110  A    between atoms: _260  and  _261
REMARK  111  A    between atoms: _264  and  _266
REMARK  112  A    between atoms: _266  and  _267
REMARK  113  A    between atoms: _266  and  _269
REMARK  114  A    between atoms: _269  and  _270
REMARK  115  A    between atoms: _275  and  _277
REMARK  116  A    between atoms: _277  and  _278
REMARK  117  A    between atoms: _277  and  _280
REMARK  118  A    between atoms: _280  and  _281
REMARK  119  A    between atoms: _284  and  _286
REMARK  120  A    between atoms: _286  and  _287
REMARK  121  A    between atoms: _286  and  _289
REMARK  122  A    between atoms: _289  and  _290
REMARK  123  A    between atoms: _296  and  _298
REMARK  124  A    between atoms: _298  and  _299
REMARK  125  A    between atoms: _298  and  _301
REMARK  126  A    between atoms: _301  and  _302
REMARK  127  A    between atoms: _304  and  _306
REMARK  128  A    between atoms: _306  and  _307
REMARK  129  A    between atoms: _310  and  _312
REMARK  130  A    between atoms: _312  and  _313
REMARK  131  A    between atoms: _312  and  _315
REMARK  132  A    between atoms: _315  and  _316
REMARK  133  A    between atoms: _321  and  _323
REMARK  134  A    between atoms: _323  and  _324
REMARK  135  A    between atoms: _323  and  _326
REMARK  136  A    between atoms: _326  and  _327
REMARK  137  A    between atoms: _327  and  _328
REMARK  138  A    between atoms: _328  and  _329
REMARK  139  A    between atoms: _338  and  _340
REMARK  140  A    between atoms: _340  and  _341
REMARK  141  A    between atoms: _340  and  _343
REMARK  142  A    between atoms: _343  and  _344
REMARK  143  A    between atoms: _347  and  _349
REMARK  144  A    between atoms: _349  and  _350
REMARK  145  A    between atoms: _349  and  _352
REMARK  146  A    between atoms: _352  and  _353
REMARK  147  A    between atoms: _353  and  _354
REMARK  148  A    between atoms: _354  and  _355
REMARK  149  A    between atoms: _364  and  _366
REMARK  150  A    between atoms: _366  and  _367
REMARK  151  A    between atoms: _366  and  _369
REMARK  152  A    between atoms: _369  and  _370
REMARK  153  A    between atoms: _375  and  _376
REMARK  154  A    between atoms: _378  and  _380
REMARK  155  A    between atoms: _380  and  _381
REMARK  156  A    between atoms: _380  and  _383
REMARK  157  A    between atoms: _386  and  _388
REMARK  158  A    between atoms: _388  and  _389
REMARK  159  A    between atoms: _388  and  _391
REMARK  160  A    between atoms: _391  and  _392
REMARK  161  A    between atoms: _397  and  _398
REMARK  162  A    between atoms: _400  and  _402
REMARK  163  A    between atoms: _402  and  _403
REMARK  164  A    between atoms: _402  and  _405
REMARK  165  A    between atoms: _405  and  _406
REMARK  166  A    between atoms: _408  and  _410
REMARK  167  A    between atoms: _410  and  _411
REMARK  168  A    between atoms: _413  and  _415
REMARK  169  A    between atoms: _415  and  _416
REMARK  170  A    between atoms: _415  and  _418
REMARK  171  A    between atoms: _421  and  _423
REMARK  172  A    between atoms: _423  and  _424
REMARK  173  A    between atoms: _427  and  _429
REMARK  174  A    between atoms: _429  and  _430
REMARK  175  A    between atoms: _429  and  _432
REMARK  176  A    between atoms: _432  and  _433
REMARK  177  A    between atoms: _438  and  _439
REMARK  178  A    between atoms: _441  and  _443
REMARK  179  A    between atoms: _443  and  _444
REMARK  180  A    between atoms: _443  and  _446
REMARK  181  A    between atoms: _446  and  _447
REMARK  182  A    between atoms: _449  and  _451
REMARK  183  A    between atoms: _451  and  _452
REMARK  184  A    between atoms: _455  and  _457
REMARK  185  A    between atoms: _457  and  _458
REMARK  186  A    between atoms: _461  and  _463
REMARK  187  A    between atoms: _463  and  _464
REMARK  188  A    between atoms: _463  and  _466
REMARK  189  A    between atoms: _466  and  _467
REMARK  190  A    between atoms: _467  and  _468
REMARK  191  A    between atoms: _468  and  _469
REMARK  192  A    between atoms: _469  and  _470
REMARK  193  A    between atoms: _474  and  _476
REMARK  194  A    between atoms: _476  and  _477
REMARK  195  A    between atoms: _476  and  _479
REMARK  196  A    between atoms: _479  and  _480
REMARK  197  A    between atoms: _483  and  _485
REMARK  198  A    between atoms: _485  and  _486
REMARK  199  A    between atoms: _485  and  _488
REMARK  200  A    between atoms: _488  and  _489
REMARK  201  A    between atoms: _492  and  _494
REMARK  202  A    between atoms: _494  and  _495
REMARK  203  A    between atoms: _494  and  _497
REMARK  204  A    between atoms: _497  and  _498
REMARK  205  A    between atoms: _501  and  _503
REMARK  206  A    between atoms: _503  and  _504
REMARK  207  A    between atoms: _503  and  _506
REMARK  208  A    between atoms: _506  and  _507
REMARK  209  A    between atoms: _512  and  _514
REMARK  210  A    between atoms: _514  and  _515
REMARK  211  A    between atoms: _514  and  _517
REMARK  212  A    between atoms: _517  and  _518
REMARK  213  A    between atoms: _523  and  _525
REMARK  214  A    between atoms: _525  and  _526
REMARK  215  A    between atoms: _529  and  _531
REMARK  216  A    between atoms: _531  and  _532
REMARK  217  A    between atoms: _531  and  _534
REMARK  218  A    between atoms: _534  and  _535
REMARK  219  A    between atoms: _535  and  _536
REMARK  220  A    between atoms: _539  and  _541
REMARK  221  A    between atoms: _541  and  _542
REMARK  222  A    between atoms: _541  and  _544
REMARK  223  A    between atoms: _544  and  _545
REMARK  224  A    between atoms: _545  and  _546
REMARK  225  A    between atoms: _546  and  _547
REMARK  226  A    between atoms: _547  and  _548
REMARK  227  A    between atoms: _552  and  _554
REMARK  228  A    between atoms: _554  and  _555
REMARK  229  A    between atoms: _554  and  _557
REMARK  230  A    between atoms: _557  and  _558
REMARK  231  A    between atoms: _560  and  _562
REMARK  232  A    between atoms: _562  and  _563
REMARK  233  A    between atoms: _565  and  _567
REMARK  234  A    between atoms: _567  and  _568
REMARK  235  A    between atoms: _567  and  _570
REMARK  236  A    between atoms: _570  and  _571
REMARK  237  A    between atoms: _574  and  _576
REMARK  238  A    between atoms: _576  and  _577
REMARK  239  A    between atoms: _576  and  _579
REMARK  240  A    between atoms: _579  and  _580
REMARK  241  A    between atoms: _580  and  _581
REMARK  242  A    between atoms: _584  and  _586
REMARK  243  A    between atoms: _586  and  _587
REMARK  244  A    between atoms: _586  and  _589
REMARK  245  A    between atoms: _589  and  _590
REMARK  246  A    between atoms: _590  and  _591
REMARK  247  A    between atoms: _591  and  _592
REMARK  248  A    between atoms: _601  and  _603
REMARK  249  A    between atoms: _603  and  _604
REMARK  250  A    between atoms: _603  and  _606
REMARK  251  A    between atoms: _606  and  _607
REMARK  252  A    between atoms: _612  and  _613
REMARK  253  A    between atoms: _615  and  _617
REMARK  254  A    between atoms: _617  and  _618
REMARK  255  A    between atoms: _617  and  _620
REMARK  256  A    between atoms: _620  and  _621
REMARK  257  A    between atoms: _621  and  _622
REMARK  258  A    between atoms: _625  and  _627
REMARK  259  A    between atoms: _627  and  _628
REMARK  260  A    between atoms: _627  and  _630
REMARK  261  A    between atoms: _630  and  _631
REMARK  262  A    between atoms: _634  and  _636
REMARK  263  A    between atoms: _636  and  _637
REMARK  264  A    between atoms: _636  and  _639
REMARK  265  A    between atoms: _639  and  _640
REMARK  266  A    between atoms: _646  and  _648
REMARK  267  A    between atoms: _648  and  _649
REMARK  268  A    between atoms: _648  and  _651
REMARK  269  A    between atoms: _651  and  _652
REMARK  270  A    between atoms: _652  and  _653
REMARK  271  A    between atoms: _658  and  _660
REMARK  272  A    between atoms: _660  and  _661
REMARK  273  A    between atoms: _660  and  _663
REMARK  274  A    between atoms: _666  and  _668
REMARK  275  A    between atoms: _668  and  _669
REMARK  276  A    between atoms: _668  and  _671
REMARK  277  A    between atoms: _671  and  _672
REMARK  278  A    between atoms: _678  and  _680
REMARK  279  A    between atoms: _680  and  _681
REMARK  280  A    between atoms: _680  and  _683
REMARK  281  A    between atoms: _686  and  _688
REMARK  282  A    between atoms: _688  and  _689
REMARK  283  A    between atoms: _688  and  _691
REMARK  284  A    between atoms: _691  and  _692
REMARK  285  A    between atoms: _695  and  _697
REMARK  286  A    between atoms: _697  and  _698
REMARK  287  A    between atoms: _697  and  _700
REMARK  288  A    between atoms: _700  and  _701
REMARK  289  A    between atoms: _706  and  _708
REMARK  290  A    between atoms: _708  and  _709
REMARK  291  A    between atoms: _708  and  _711
REMARK  292  A    between atoms: _711  and  _712
REMARK  293  A    between atoms: _712  and  _713
REMARK  294  A    between atoms: _713  and  _714
REMARK  295  A    between atoms: _714  and  _715
REMARK  296  A    between atoms: _719  and  _721
REMARK  297  A    between atoms: _721  and  _722
REMARK  298  A    between atoms: _724  and  _726
REMARK  299  A    between atoms: _726  and  _727
REMARK  300  A    between atoms: _726  and  _729
REMARK  301  A    between atoms: _729  and  _730
REMARK  302  A    between atoms: _733  and  _735
REMARK  303  A    between atoms: _735  and  _736
REMARK  304  A    between atoms: _735  and  _738
REMARK  305  A    between atoms: _738  and  _739
REMARK  306  A    between atoms: _739  and  _740
REMARK  307  A    between atoms: _745  and  _747
REMARK  308  A    between atoms: _747  and  _748
REMARK  309  A    between atoms: _747  and  _750
REMARK  310  A    between atoms: _750  and  _751
REMARK  311  A    between atoms: _751  and  _752
REMARK  312  A    between atoms: _755  and  _757
REMARK  313  A    between atoms: _757  and  _758
REMARK  314  A    between atoms: _757  and  _760
REMARK  315  A    between atoms: _763  and  _765
REMARK  316  A    between atoms: _765  and  _766
REMARK  317  A    between atoms: _765  and  _768
REMARK  318  A    between atoms: _768  and  _769
REMARK  319  A    between atoms: _769  and  _770
REMARK                            x       y       z     vdW  Elec       q    Type
REMARK                         _______ _______ _______ _____ _____    ______ ____
ROOT
ATOM      1  CA  ALA A   4       6.356   7.131 131.578  0.00  0.00    +0.149 C 
ATOM      2  CB  ALA A   4       5.443   6.987 130.349  0.00  0.00    +0.031 C 
ENDROOT
BRANCH   1   3
ATOM      3  C   ALA A   4       5.607   7.848 132.710  0.00  0.00    +0.241 C 
ATOM      4  N   ASN A   5       4.915   7.061 133.525  0.00  0.00    -0.297 N 
ATOM      5  H   ASN A   5       4.901   6.037 133.341  0.00  0.00    +0.150 HD
ATOM      6  O   ALA A   4       5.634   9.074 132.825  0.00  0.00    -0.273 OA
BRANCH   4   7
ATOM      7  CA  ASN A   5       4.168   7.584 134.678  0.00  0.00    +0.158 C 
BRANCH   7   8
ATOM      8  C   ASN A   5       5.152   8.350 135.613  0.00  0.00    +0.241 C 
ATOM      9  O   ASN A   5       4.827   9.400 136.149  0.00  0.00    -0.273 OA
ATOM     10  N   ARG A   6       6.362   7.842 135.799  0.00  0.00    -0.298 N 
ATOM     11  H   ARG A   6       6.631   6.938 135.361  0.00  0.00    +0.150 HD
BRANCH  10  12
ATOM     12  CA  ARG A   6       7.314   8.580 136.634  0.00  0.00    +0.137 C 
BRANCH  12  13
ATOM     13  C   ARG A   6       7.844   9.812 135.901  0.00  0.00    +0.227 C 
ATOM     14  O   ARG A   6       7.981  10.888 136.497  0.00  0.00    -0.286 OA
ENDBRANCH  12  13
BRANCH  12  15
ATOM     15  CB  ARG A   6       8.476   7.688 137.038  0.00  0.00    +0.031 C 
BRANCH  15  16
ATOM     16  CG  ARG A   6       8.041   6.479 137.834  0.00  0.00    +0.045 C 
BRANCH  16  17
ATOM     17  CD  ARG A   6       9.216   5.677 138.297  0.00  0.00    +0.174 C 
BRANCH  17  18
ATOM     18  NE  ARG A   6       9.545   4.618 137.360  0.00  0.00    -0.265 N 
ATOM     19  CZ  ARG A   6       8.867   3.486 137.252  0.00  0.00    +0.342 C 
ATOM     20  NH2 ARG A   6       7.812   3.274 138.028  0.00  0.00    -0.292 N 
ATOM     21 HH21 ARG A   6       7.520   3.996 138.718  0.00  0.00    +0.255 HD
ATOM     22 HH22 ARG A   6       7.277   2.386 137.946  0.00  0.00    +0.255 HD
ATOM     23  NH1 ARG A   6       9.245   2.569 136.366  0.00  0.00    -0.292 N 
ATOM     24 HH11 ARG A   6       8.714   1.679 136.280  0.00  0.00    +0.255 HD
ATOM     25 HH12 ARG A   6      10.072   2.742 135.759  0.00  0.00    +0.255 HD
ATOM     26  HE  ARG A   6      10.364   4.757 136.735  0.00  0.00    +0.259 HD
ENDBRANCH  17  18
ENDBRANCH  16  17
ENDBRANCH  15  16
ENDBRANCH  12  15
ENDBRANCH  10  12
ENDBRANCH   7   8
BRANCH   7  27
ATOM     27  CB  ASN A   5       3.477   6.404 135.384  0.00  0.00    +0.114 C 
BRANCH  27  28
ATOM     28  CG  ASN A   5       2.513   6.835 136.495  0.00  0.00    +0.222 C 
ATOM     29  OD1 ASN A   5       2.530   6.256 137.580  0.00  0.00    -0.275 OA
ATOM     30  ND2 ASN A   5       1.675   7.830 136.227  0.00  0.00    -0.329 N 
ATOM     31 HD21 ASN A   5       0.998   8.148 136.949  0.00  0.00    +0.145 HD
ATOM     32 HD22 ASN A   5       1.696   8.291 135.295  0.00  0.00    +0.145 HD
ENDBRANCH  27  28
ENDBRANCH   7  27
ENDBRANCH   4   7
ENDBRANCH   1   3
BRANCH   1  35
ATOM     33  C   SER A   3       7.716   5.705 133.000  0.00  0.00    +0.243 C 
ATOM     34  O   SER A   3       8.278   6.709 133.457  0.00  0.00    -0.273 OA
ATOM     35  N   ALA A   4       6.765   5.809 132.065  0.00  0.00    -0.297 N 
ATOM     36  H   ALA A   4       6.315   4.952 131.683  0.00  0.00    +0.150 HD
BRANCH  33  37
ATOM     37  CA  SER A   3       8.100   4.289 133.503  0.00  0.00    +0.178 C 
BRANCH  37  40
ATOM     38  C   PHE A   2       6.021   3.489 134.486  0.00  0.00    +0.241 C 
ATOM     39  O   PHE A   2       6.018   4.382 135.339  0.00  0.00    -0.273 OA
ATOM     40  N   SER A   3       6.978   3.358 133.563  0.00  0.00    -0.295 N 
ATOM     41  H   SER A   3       6.922   2.579 132.876  0.00  0.00    +0.150 HD
BRANCH  38  42
ATOM     42  CA  PHE A   2       4.891   2.476 134.426  0.00  0.00    +0.153 C 
BRANCH  42  44
ATOM     43  C   LEU A   1       4.102   3.303 132.268  0.00  0.00    +0.238 C 
ATOM     44  N   PHE A   2       4.499   2.277 133.019  0.00  0.00    -0.297 N 
ATOM     45  H   PHE A   2       4.533   1.323 132.607  0.00  0.00    +0.150 HD
ATOM     46  O   LEU A   1       4.010   4.453 132.697  0.00  0.00    -0.274 OA
BRANCH  43  47
ATOM     47  CA  LEU A   1       3.723   2.975 130.817  0.00  0.00    +0.145 C 
BRANCH  47  48
ATOM     48  N   LEU A   1       4.713   2.043 130.290  0.00  0.00    -0.238 NA
ATOM     49  H   LEU A   1       4.458   1.051 130.110  0.00  0.00    +0.142 HD
ENDBRANCH  47  48
BRANCH  47  50
ATOM     50  CB  LEU A   1       2.327   2.352 130.793  0.00  0.00    +0.026 C 
BRANCH  50  51
ATOM     51  CG  LEU A   1       1.625   2.217 129.450  0.00  0.00    +0.002 C 
ATOM     52  CD2 LEU A   1       0.211   1.755 129.726  0.00  0.00    +0.000 C 
ATOM     53  CD1 LEU A   1       1.646   3.549 128.705  0.00  0.00    +0.000 C 
ENDBRANCH  50  51
ENDBRANCH  47  50
ENDBRANCH  43  47
ENDBRANCH  42  44
BRANCH  42  54
ATOM     54  CB  PHE A   2       5.366   1.174 135.035  0.00  0.00    +0.055 C 
BRANCH  54  55
ATOM     55  CG  PHE A   2       4.290   0.418 135.739  0.00  0.00    -0.020 A 
ATOM     56  CD2 PHE A   2       3.681   0.947 136.875  0.00  0.00    -0.004 A 
ATOM     57  CE2 PHE A   2       2.716   0.220 137.549  0.00  0.00    -0.000 A 
ATOM     58  CZ  PHE A   2       2.345  -1.036 137.097  0.00  0.00    -0.000 A 
ATOM     59  CE1 PHE A   2       2.943  -1.564 135.963  0.00  0.00    -0.000 A 
ATOM     60  CD1 PHE A   2       3.910  -0.835 135.294  0.00  0.00    -0.004 A 
ENDBRANCH  54  55
ENDBRANCH  42  54
ENDBRANCH  38  42
ENDBRANCH  37  40
BRANCH  37  61
ATOM     61  CB  SER A   3       9.209   3.679 132.635  0.00  0.00    +0.166 C 
BRANCH  61  62
ATOM     62  OG  SER A   3      10.248   4.618 132.403  0.00  0.00    -0.380 OA
ATOM     63  H   SER A   3      10.639   4.897 133.269  0.00  0.00    +0.211 HD
ENDBRANCH  61  62
ENDBRANCH  37  61
ENDBRANCH  33  37
ENDBRANCH   1  35
TORSDOF 24
REMARK  Name = ../refined-set-2016/3tmk/3tmk_pocket.pdb
REMARK  319 active torsions:
REMARK  status: ('A' for Active; 'I' for Inactive)
REMARK    1  A    between atoms: _1  and  _3
REMARK    2  A    between atoms: _3  and  _4
REMARK    3  A    between atoms: _3  and  _6
REMARK    4  A    between atoms: _6  and  _7
REMARK    5  A    between atoms: _10  and  _12
REMARK    6  A    between atoms: _12  and  _13
REMARK    7  A    between atoms: _12  and  _15
REMARK    8  A    between atoms: _15  and  _16
REMARK    9  A    between atoms: _16  and  _17
REMARK   10  A    between atoms: _20  and  _22
REMARK   11  A    between atoms: _22  and  _23
REMARK   12  A    between atoms: _25  and  _27
REMARK   13  A    between atoms: _27  and  _28
REMARK   14  A    between atoms: _27  and  _30
REMARK   15  A    between atoms: _30  and  _31
REMARK   16  A    between atoms: _34  and  _36
REMARK   17  A    between atoms: _36  and  _37
REMARK   18  A    between atoms: _36  and  _39
REMARK   19  A    between atoms: _39  and  _40
REMARK   20  A    between atoms: _43  and  _45
REMARK   21  A    between atoms: _45  and  _46
REMARK   22  A    between atoms: _45  and  _48
REMARK   23  A    between atoms: _48  and  _49
REMARK   24  A    between atoms: _49  and  _50
REMARK   25  A    between atoms: _50  and  _51
REMARK   26  A    between atoms: _60  and  _62
REMARK   27  A    between atoms: _62  and  _63
REMARK   28  A    between atoms: _62  and  _65
REMARK   29  A    between atoms: _65  and  _66
REMARK   30  A    between atoms: _69  and  _71
REMARK   31  A    between atoms: _71  and  _72
REMARK   32  A    between atoms: _74  and  _76
REMARK   33  A    between atoms: _76  and  _77
REMARK   34  A    between atoms: _76  and  _79
REMARK   35  A    between atoms: _79  and  _80
REMARK   36  A    between atoms: _80  and  _81
REMARK   37  A    between atoms: _81  and  _82
REMARK   38  A    between atoms: _82  and  _83
REMARK   39  A    between atoms: _87  and  _89
REMARK   40  A    between atoms: _89  and  _90
REMARK   41  A    between atoms: _89  and  _92
REMARK   42  A    between atoms: _92  and  _93
REMARK   43  A    between atoms: _96  and  _98
REMARK   44  A    between atoms: _98  and  _99
REMARK   45  A    between atoms: _98  and  _101
REMARK   46  A    between atoms: _101  and  _102
REMARK   47  A    between atoms: _105  and  _107
REMARK   48  A    between atoms: _107  and  _108
REMARK   49  A    between atoms: _107  and  _110
REMARK   50  A    between atoms: _110  and  _111
REMARK   51  A    between atoms: _111  and  _112
REMARK   52  A    between atoms: _117  and  _119
REMARK   53  A    between atoms: _119  and  _120
REMARK   54  A    between atoms: _119  and  _122
REMARK   55  A    between atoms: _124  and  _126
REMARK   56  A    between atoms: _126  and  _127
REMARK   57  A    between atoms: _126  and  _129
REMARK   58  A    between atoms: _129  and  _130
REMARK   59  A    between atoms: _135  and  _137
REMARK   60  A    between atoms: _137  and  _138
REMARK   61  A    between atoms: _137  and  _140
REMARK   62  A    between atoms: _140  and  _141
REMARK   63  A    between atoms: _144  and  _146
REMARK   64  A    between atoms: _146  and  _147
REMARK   65  A    between atoms: _146  and  _149
REMARK   66  A    between atoms: _149  and  _150
REMARK   67  A    between atoms: _150  and  _151
REMARK   68  A    between atoms: _151  and  _152
REMARK   69  A    between atoms: _152  and  _153
REMARK   70  A    between atoms: _157  and  _159
REMARK   71  A    between atoms: _159  and  _160
REMARK   72  A    between atoms: _159  and  _162
REMARK   73  A    between atoms: _162  and  _163
REMARK   74  A    between atoms: _170  and  _171
REMARK   75  A    between atoms: _176  and  _178
REMARK   76  A    between atoms: _178  and  _179
REMARK   77  A    between atoms: _178  and  _181
REMARK   78  A    between atoms: _181  and  _182
REMARK   79  A    between atoms: _182  and  _183
REMARK   80  A    between atoms: _186  and  _188
REMARK   81  A    between atoms: _188  and  _189
REMARK   82  A    between atoms: _188  and  _191
REMARK   83  A    between atoms: _191  and  _192
REMARK   84  A    between atoms: _192  and  _193
REMARK   85  A    between atoms: _193  and  _194
REMARK   86  A    between atoms: _203  and  _205
REMARK   87  A    between atoms: _205  and  _206
REMARK   88  A    between atoms: _205  and  _208
REMARK   89  A    between atoms: _208  and  _209
REMARK   90  A    between atoms: _212  and  _214
REMARK   91  A    between atoms: _214  and  _215
REMARK   92  A    between atoms: _214  and  _217
REMARK   93  A    between atoms: _217  and  _218
REMARK   94  A    between atoms: _223  and  _225
REMARK   95  A    between atoms: _225  and  _226
REMARK   96  A    between atoms: _225  and  _228
REMARK   97  A    between atoms: _228  and  _229
REMARK   98  A    between atoms: _234  and  _235
REMARK   99  A    between atoms: _237  and  _239
REMARK  100  A    between atoms: _239  and  _240
REMARK  101  A    between atoms: _239  and  _242
REMARK  102  A    between atoms: _242  and  _243
REMARK  103  A    between atoms: _246  and  _248
REMARK  104  A    between atoms: _248  and  _249
REMARK  105  A    between atoms: _248  and  _251
REMARK  106  A    between atoms: _251  and  _252
REMARK  107  A    between atoms: _255  and  _257
REMARK  108  A    between atoms: _257  and  _258
REMARK  109  A    between atoms: _257  and  _260
REMARK  110  A    between atoms: _260  and  _261
REMARK  111  A    between atoms: _264  and  _266
REMARK  112  A    between atoms: _266  and  _267
REMARK  113  A    between atoms: _266  and  _269
REMARK  114  A    between atoms: _269  and  _270
REMARK  115  A    between atoms: _275  and  _277
REMARK  116  A    between atoms: _277  and  _278
REMARK  117  A    between atoms: _277  and  _280
REMARK  118  A    between atoms: _280  and  _281
REMARK  119  A    between atoms: _284  and  _286
REMARK  120  A    between atoms: _286  and  _287
REMARK  121  A    between atoms: _286  and  _289
REMARK  122  A    between atoms: _289  and  _290
REMARK  123  A    between atoms: _296  and  _298
REMARK  124  A    between atoms: _298  and  _299
REMARK  125  A    between atoms: _298  and  _301
REMARK  126  A    between atoms: _301  and  _302
REMARK  127  A    between atoms: _304  and  _306
REMARK  128  A    between atoms: _306  and  _307
REMARK  129  A    between atoms: _310  and  _312
REMARK  130  A    between atoms: _312  and  _313
REMARK  131  A    between atoms: _312  and  _315
REMARK  132  A    between atoms: _315  and  _316
REMARK  133  A    between atoms: _321  and  _323
REMARK  134  A    between atoms: _323  and  _324
REMARK  135  A    between atoms: _323  and  _326
REMARK  136  A    between atoms: _326  and  _327
REMARK  137  A    between atoms: _327  and  _328
REMARK  138  A    between atoms: _328  and  _329
REMARK  139  A    between atoms: _338  and  _340
REMARK  140  A    between atoms: _340  and  _341
REMARK  141  A    between atoms: _340  and  _343
REMARK  142  A    between atoms: _343  and  _344
REMARK  143  A    between atoms: _347  and  _349
REMARK  144  A    between atoms: _349  and  _350
REMARK  145  A    between atoms: _349  and  _352
REMARK  146  A    between atoms: _352  and  _353
REMARK  147  A    between atoms: _353  and  _354
REMARK  148  A    between atoms: _354  and  _355
REMARK  149  A    between atoms: _364  and  _366
REMARK  150  A    between atoms: _366  and  _367
REMARK  151  A    between atoms: _366  and  _369
REMARK  152  A    between atoms: _369  and  _370
REMARK  153  A    between atoms: _375  and  _376
REMARK  154  A    between atoms: _378  and  _380
REMARK  155  A    between atoms: _380  and  _381
REMARK  156  A    between atoms: _380  and  _383
REMARK  157  A    between atoms: _386  and  _388
REMARK  158  A    between atoms: _388  and  _389
REMARK  159  A    between atoms: _388  and  _391
REMARK  160  A    between atoms: _391  and  _392
REMARK  161  A    between atoms: _397  and  _398
REMARK  162  A    between atoms: _400  and  _402
REMARK  163  A    between atoms: _402  and  _403
REMARK  164  A    between atoms: _402  and  _405
REMARK  165  A    between atoms: _405  and  _406
REMARK  166  A    between atoms: _408  and  _410
REMARK  167  A    between atoms: _410  and  _411
REMARK  168  A    between atoms: _413  and  _415
REMARK  169  A    between atoms: _415  and  _416
REMARK  170  A    between atoms: _415  and  _418
REMARK  171  A    between atoms: _421  and  _423
REMARK  172  A    between atoms: _423  and  _424
REMARK  173  A    between atoms: _427  and  _429
REMARK  174  A    between atoms: _429  and  _430
REMARK  175  A    between atoms: _429  and  _432
REMARK  176  A    between atoms: _432  and  _433
REMARK  177  A    between atoms: _438  and  _439
REMARK  178  A    between atoms: _441  and  _443
REMARK  179  A    between atoms: _443  and  _444
REMARK  180  A    between atoms: _443  and  _446
REMARK  181  A    between atoms: _446  and  _447
REMARK  182  A    between atoms: _449  and  _451
REMARK  183  A    between atoms: _451  and  _452
REMARK  184  A    between atoms: _455  and  _457
REMARK  185  A    between atoms: _457  and  _458
REMARK  186  A    between atoms: _461  and  _463
REMARK  187  A    between atoms: _463  and  _464
REMARK  188  A    between atoms: _463  and  _466
REMARK  189  A    between atoms: _466  and  _467
REMARK  190  A    between atoms: _467  and  _468
REMARK  191  A    between atoms: _468  and  _469
REMARK  192  A    between atoms: _469  and  _470
REMARK  193  A    between atoms: _474  and  _476
REMARK  194  A    between atoms: _476  and  _477
REMARK  195  A    between atoms: _476  and  _479
REMARK  196  A    between atoms: _479  and  _480
REMARK  197  A    between atoms: _483  and  _485
REMARK  198  A    between atoms: _485  and  _486
REMARK  199  A    between atoms: _485  and  _488
REMARK  200  A    between atoms: _488  and  _489
REMARK  201  A    between atoms: _492  and  _494
REMARK  202  A    between atoms: _494  and  _495
REMARK  203  A    between atoms: _494  and  _497
REMARK  204  A    between atoms: _497  and  _498
REMARK  205  A    between atoms: _501  and  _503
REMARK  206  A    between atoms: _503  and  _504
REMARK  207  A    between atoms: _503  and  _506
REMARK  208  A    between atoms: _506  and  _507
REMARK  209  A    between atoms: _512  and  _514
REMARK  210  A    between atoms: _514  and  _515
REMARK  211  A    between atoms: _514  and  _517
REMARK  212  A    between atoms: _517  and  _518
REMARK  213  A    between atoms: _523  and  _525
REMARK  214  A    between atoms: _525  and  _526
REMARK  215  A    between atoms: _529  and  _531
REMARK  216  A    between atoms: _531  and  _532
REMARK  217  A    between atoms: _531  and  _534
REMARK  218  A    between atoms: _534  and  _535
REMARK  219  A    between atoms: _535  and  _536
REMARK  220  A    between atoms: _539  and  _541
REMARK  221  A    between atoms: _541  and  _542
REMARK  222  A    between atoms: _541  and  _544
REMARK  223  A    between atoms: _544  and  _545
REMARK  224  A    between atoms: _545  and  _546
REMARK  225  A    between atoms: _546  and  _547
REMARK  226  A    between atoms: _547  and  _548
REMARK  227  A    between atoms: _552  and  _554
REMARK  228  A    between atoms: _554  and  _555
REMARK  229  A    between atoms: _554  and  _557
REMARK  230  A    between atoms: _557  and  _558
REMARK  231  A    between atoms: _560  and  _562
REMARK  232  A    between atoms: _562  and  _563
REMARK  233  A    between atoms: _565  and  _567
REMARK  234  A    between atoms: _567  and  _568
REMARK  235  A    between atoms: _567  and  _570
REMARK  236  A    between atoms: _570  and  _571
REMARK  237  A    between atoms: _574  and  _576
REMARK  238  A    between atoms: _576  and  _577
REMARK  239  A    between atoms: _576  and  _579
REMARK  240  A    between atoms: _579  and  _580
REMARK  241  A    between atoms: _580  and  _581
REMARK  242  A    between atoms: _584  and  _586
REMARK  243  A    between atoms: _586  and  _587
REMARK  244  A    between atoms: _586  and  _589
REMARK  245  A    between atoms: _589  and  _590
REMARK  246  A    between atoms: _590  and  _591
REMARK  247  A    between atoms: _591  and  _592
REMARK  248  A    between atoms: _601  and  _603
REMARK  249  A    between atoms: _603  and  _604
REMARK  250  A    between atoms: _603  and  _606
REMARK  251  A    between atoms: _606  and  _607
REMARK  252  A    between atoms: _612  and  _613
REMARK  253  A    between atoms: _615  and  _617
REMARK  254  A    between atoms: _617  and  _618
REMARK  255  A    between atoms: _617  and  _620
REMARK  256  A    between atoms: _620  and  _621
REMARK  257  A    between atoms: _621  and  _622
REMARK  258  A    between atoms: _625  and  _627
REMARK  259  A    between atoms: _627  and  _628
REMARK  260  A    between atoms: _627  and  _630
REMARK  261  A    between atoms: _630  and  _631
REMARK  262  A    between atoms: _634  and  _636
REMARK  263  A    between atoms: _636  and  _637
REMARK  264  A    between atoms: _636  and  _639
REMARK  265  A    between atoms: _639  and  _640
REMARK  266  A    between atoms: _646  and  _648
REMARK  267  A    between atoms: _648  and  _649
REMARK  268  A    between atoms: _648  and  _651
REMARK  269  A    between atoms: _651  and  _652
REMARK  270  A    between atoms: _652  and  _653
REMARK  271  A    between atoms: _658  and  _660
REMARK  272  A    between atoms: _660  and  _661
REMARK  273  A    between atoms: _660  and  _663
REMARK  274  A    between atoms: _666  and  _668
REMARK  275  A    between atoms: _668  and  _669
REMARK  276  A    between atoms: _668  and  _671
REMARK  277  A    between atoms: _671  and  _672
REMARK  278  A    between atoms: _678  and  _680
REMARK  279  A    between atoms: _680  and  _681
REMARK  280  A    between atoms: _680  and  _683
REMARK  281  A    between atoms: _686  and  _688
REMARK  282  A    between atoms: _688  and  _689
REMARK  283  A    between atoms: _688  and  _691
REMARK  284  A    between atoms: _691  and  _692
REMARK  285  A    between atoms: _695  and  _697
REMARK  286  A    between atoms: _697  and  _698
REMARK  287  A    between atoms: _697  and  _700
REMARK  288  A    between atoms: _700  and  _701
REMARK  289  A    between atoms: _706  and  _708
REMARK  290  A    between atoms: _708  and  _709
REMARK  291  A    between atoms: _708  and  _711
REMARK  292  A    between atoms: _711  and  _712
REMARK  293  A    between atoms: _712  and  _713
REMARK  294  A    between atoms: _713  and  _714
REMARK  295  A    between atoms: _714  and  _715
REMARK  296  A    between atoms: _719  and  _721
REMARK  297  A    between atoms: _721  and  _722
REMARK  298  A    between atoms: _724  and  _726
REMARK  299  A    between atoms: _726  and  _727
REMARK  300  A    between atoms: _726  and  _729
REMARK  301  A    between atoms: _729  and  _730
REMARK  302  A    between atoms: _733  and  _735
REMARK  303  A    between atoms: _735  and  _736
REMARK  304  A    between atoms: _735  and  _738
REMARK  305  A    between atoms: _738  and  _739
REMARK  306  A    between atoms: _739  and  _740
REMARK  307  A    between atoms: _745  and  _747
REMARK  308  A    between atoms: _747  and  _748
REMARK  309  A    between atoms: _747  and  _750
REMARK  310  A    between atoms: _750  and  _751
REMARK  311  A    between atoms: _751  and  _752
REMARK  312  A    between atoms: _755  and  _757
REMARK  313  A    between atoms: _757  and  _758
REMARK  314  A    between atoms: _757  and  _760
REMARK  315  A    between atoms: _763  and  _765
REMARK  316  A    between atoms: _765  and  _766
REMARK  317  A    between atoms: _765  and  _768
REMARK  318  A    between atoms: _768  and  _769
REMARK  319  A    between atoms: _769  and  _770
REMARK                            x       y       z     vdW  Elec       q    Type
REMARK                         _______ _______ _______ _____ _____    ______ ____
ROOT
ATOM      1  CA  SER A   6       9.496  -1.776 141.606  0.00  0.00    +0.178 C 
ENDROOT
BRANCH   1   2
ATOM      2  C   SER A   6       9.334  -1.945 140.074  0.00  0.00    +0.243 C 
ATOM      3  O   SER A   6       8.976  -3.016 139.594  0.00  0.00    -0.273 OA
ATOM      4  N   GLY A   7       9.603  -0.872 139.326  0.00  0.00    -0.295 N 
ATOM      5  H   GLY A   7       9.905   0.010 139.787  0.00  0.00    +0.150 HD
BRANCH   4   6
ATOM      6  CA  GLY A   7       9.480  -0.917 137.869  0.00  0.00    +0.176 C 
BRANCH   6   7
ATOM      7  C   GLY A   7      10.243  -2.078 137.264  0.00  0.00    +0.243 C 
ATOM      8  N   VAL A   8      11.543  -2.139 137.550  0.00  0.00    -0.297 N 
ATOM      9  H   VAL A   8      11.961  -1.401 138.152  0.00  0.00    +0.150 HD
ATOM     10  O   GLY A   7       9.667  -2.920 136.564  0.00  0.00    -0.273 OA
BRANCH   8  11
ATOM     11  CA  VAL A   8      12.401  -3.209 137.045  0.00  0.00    +0.149 C 
BRANCH  11  12
ATOM     12  C   VAL A   8      12.059  -4.584 137.584  0.00  0.00    +0.241 C 
ATOM     13  N   ALA A   9      11.911  -4.682 138.907  0.00  0.00    -0.297 N 
ATOM     14  H   ALA A   9      11.990  -3.828 139.495  0.00  0.00    +0.150 HD
ATOM     15  O   VAL A   8      11.918  -5.549 136.819  0.00  0.00    -0.273 OA
BRANCH  13  16
ATOM     16  CA  ALA A   9      11.640  -5.968 139.543  0.00  0.00    +0.149 C 
ATOM     17  CB  ALA A   9      11.661  -5.800 141.065  0.00  0.00    +0.031 C 
BRANCH  16  18
ATOM     18  C   ALA A   9      10.365  -6.684 139.119  0.00  0.00    +0.241 C 
ATOM     19  N   TYR A  10       9.262  -5.959 139.050  0.00  0.00    -0.297 N 
ATOM     20  H   TYR A  10       9.287  -4.939 139.249  0.00  0.00    +0.150 HD
ATOM     21  O   ALA A   9      10.370  -7.888 138.857  0.00  0.00    -0.273 OA
BRANCH  19  22
ATOM     22  CA  TYR A  10       8.013  -6.611 138.691  0.00  0.00    +0.153 C 
BRANCH  22  23
ATOM     23  C   TYR A  10       7.992  -7.093 137.246  0.00  0.00    +0.241 C 
ATOM     24  O   TYR A  10       7.495  -8.198 136.969  0.00  0.00    -0.273 OA
ATOM     25  N   SER A  11       8.540  -6.290 136.334  0.00  0.00    -0.295 N 
ATOM     26  H   SER A  11       8.952  -5.379 136.619  0.00  0.00    +0.150 HD
BRANCH  25  27
ATOM     27  CA  SER A  11       8.558  -6.699 134.931  0.00  0.00    +0.178 C 
BRANCH  27  28
ATOM     28  C   SER A  11       9.552  -7.823 134.690  0.00  0.00    +0.243 C 
ATOM     29  N   ALA A  12      10.768  -7.685 135.211  0.00  0.00    -0.297 N 
ATOM     30  H   ALA A  12      10.995  -6.837 135.768  0.00  0.00    +0.150 HD
ATOM     31  O   SER A  11       9.221  -8.821 134.063  0.00  0.00    -0.273 OA
BRANCH  29  32
ATOM     32  CA  ALA A  12      11.791  -8.714 135.009  0.00  0.00    +0.149 C 
ATOM     33  CB  ALA A  12      13.120  -8.213 135.520  0.00  0.00    +0.031 C 
BRANCH  32  34
ATOM     34  C   ALA A  12      11.436 -10.061 135.647  0.00  0.00    +0.241 C 
ATOM     35  N   ALA A  13      10.583 -10.032 136.664  0.00  0.00    -0.297 N 
ATOM     36  H   ALA A  13      10.200  -9.122 136.992  0.00  0.00    +0.150 HD
ATOM     37  O   ALA A  12      11.914 -11.123 135.223  0.00  0.00    -0.273 OA
BRANCH  35  38
ATOM     38  CA  ALA A  13      10.179 -11.269 137.325  0.00  0.00    +0.149 C 
ATOM     39  CB  ALA A  13       9.370 -10.956 138.576  0.00  0.00    +0.031 C 
BRANCH  38  40
ATOM     40  C   ALA A  13       9.343 -12.132 136.381  0.00  0.00    +0.241 C 
ATOM     41  O   ALA A  13       9.238 -13.355 136.553  0.00  0.00    -0.273 OA
ATOM     42  N   LYS A  14       8.735 -11.486 135.391  0.00  0.00    -0.298 N 
ATOM     43  H   LYS A  14       8.863 -10.458 135.295  0.00  0.00    +0.150 HD
BRANCH  42  44
ATOM     44  CA  LYS A  14       7.894 -12.196 134.441  0.00  0.00    +0.137 C 
BRANCH  44  45
ATOM     45  C   LYS A  14       8.694 -13.159 133.583  0.00  0.00    +0.227 C 
ATOM     46  O   LYS A  14       8.162 -14.157 133.109  0.00  0.00    -0.286 OA
ENDBRANCH  44  45
BRANCH  44  47
ATOM     47  CB  LYS A  14       7.142 -11.189 133.575  0.00  0.00    +0.028 C 
BRANCH  47  48
ATOM     48  CG  LYS A  14       6.366 -10.176 134.396  0.00  0.00    -0.000 C 
BRANCH  48  49
ATOM     49  CD  LYS A  14       5.285  -9.495 133.569  0.00  0.00    -0.024 C 
BRANCH  49  50
ATOM     50  CE  LYS A  14       4.543  -8.476 134.390  0.00  0.00    -0.086 C 
BRANCH  50  51
ATOM     51  NZ  LYS A  14       3.740  -7.563 133.553  0.00  0.00    +0.380 N 
ATOM     52  HZ1 LYS A  14       3.247  -6.879 134.162  0.00  0.00    -0.089 HD
ATOM     53  HZ2 LYS A  14       3.042  -8.113 133.013  0.00  0.00    -0.089 HD
ATOM     54  HZ3 LYS A  14       4.367  -7.055 132.896  0.00  0.00    -0.089 HD
ENDBRANCH  50  51
ENDBRANCH  49  50
ENDBRANCH  48  49
ENDBRANCH  47  48
ENDBRANCH  44  47
ENDBRANCH  42  44
ENDBRANCH  38  40
ENDBRANCH  35  38
ENDBRANCH  32  34
ENDBRANCH  29  32
ENDBRANCH  27  28
BRANCH  27  55
ATOM     55  CB  SER A  11       8.887  -5.521 134.030  0.00  0.00    +0.166 C 
BRANCH  55  56
ATOM     56  OG  SER A  11       7.843  -4.570 134.001  0.00  0.00    -0.380 OA
ATOM     57  H   SER A  11       8.097  -3.821 133.405  0.00  0.00    +0.211 HD
ENDBRANCH  55  56
ENDBRANCH  27  55
ENDBRANCH  25  27
ENDBRANCH  22  23
BRANCH  22  58
ATOM     58  CB  TYR A  10       6.822  -5.684 138.987  0.00  0.00    +0.055 C 
BRANCH  58  59
ATOM     59  CG  TYR A  10       6.413  -5.723 140.459  0.00  0.00    -0.020 A 
ATOM     60  CD2 TYR A  10       7.103  -4.975 141.409  0.00  0.00    -0.001 A 
ATOM     61  CE2 TYR A  10       6.766  -5.045 142.752  0.00  0.00    +0.036 A 
ATOM     62  CZ  TYR A  10       5.733  -5.872 143.136  0.00  0.00    +0.134 A 
ATOM     63  CE1 TYR A  10       5.032  -6.616 142.207  0.00  0.00    +0.036 A 
ATOM     64  CD1 TYR A  10       5.372  -6.540 140.892  0.00  0.00    -0.001 A 
BRANCH  62  65
ATOM     65  OH  TYR A  10       5.425  -5.985 144.463  0.00  0.00    -0.506 OA
ATOM     66  HH  TYR A  10       4.481  -5.724 144.605  0.00  0.00    +0.292 HD
ENDBRANCH  62  65
ENDBRANCH  58  59
ENDBRANCH  22  58
ENDBRANCH  19  22
ENDBRANCH  16  18
ENDBRANCH  13  16
ENDBRANCH  11  12
BRANCH  11  67
ATOM     67  CB  VAL A   8      13.891  -2.930 137.374  0.00  0.00    +0.027 C 
ATOM     68  CG2 VAL A   8      14.766  -4.120 136.967  0.00  0.00    +0.002 C 
ATOM     69  CG1 VAL A   8      14.330  -1.671 136.671  0.00  0.00    +0.002 C 
ENDBRANCH  11  67
ENDBRANCH   8  11
ENDBRANCH   6   7
ENDBRANCH   4   6
ENDBRANCH   1   2
BRANCH   1  71
ATOM     70  C   TYR A   5      11.894  -1.467 141.492  0.00  0.00    +0.241 C 
ATOM     71  N   SER A   6      10.708  -0.988 141.830  0.00  0.00    -0.295 N 
ATOM     72  H   SER A   6      10.637  -0.043 142.259  0.00  0.00    +0.150 HD
ATOM     73  O   TYR A   5      12.036  -2.599 141.027  0.00  0.00    -0.273 OA
BRANCH  70  74
ATOM     74  CA  TYR A   5      13.086  -0.561 141.728  0.00  0.00    +0.153 C 
BRANCH  74  76
ATOM     75  C   VAL A   4      12.524   1.042 140.018  0.00  0.00    +0.241 C 
ATOM     76  N   TYR A   5      12.815   0.792 141.294  0.00  0.00    -0.297 N 
ATOM     77  H   TYR A   5      12.847   1.573 141.981  0.00  0.00    +0.150 HD
ATOM     78  O   VAL A   4      12.473   0.143 139.168  0.00  0.00    -0.273 OA
BRANCH  75  79
ATOM     79  CA  VAL A   4      12.257   2.497 139.620  0.00  0.00    +0.149 C 
BRANCH  79  82
ATOM     80  C   TYR A   3      10.371   2.882 141.099  0.00  0.00    +0.241 C 
ATOM     81  O   TYR A   3       9.839   1.829 140.740  0.00  0.00    -0.273 OA
ATOM     82  N   VAL A   4      11.544   3.282 140.623  0.00  0.00    -0.297 N 
ATOM     83  H   VAL A   4      11.962   4.169 140.970  0.00  0.00    +0.150 HD
BRANCH  80  84
ATOM     84  CA  TYR A   3       9.707   3.797 142.148  0.00  0.00    +0.153 C 
BRANCH  84  87
ATOM     85  C   ARG A   2       8.116   3.521 143.993  0.00  0.00    +0.241 C 
ATOM     86  O   ARG A   2       7.799   4.718 143.965  0.00  0.00    -0.273 OA
ATOM     87  N   TYR A   3       9.005   2.988 143.151  0.00  0.00    -0.297 N 
ATOM     88  H   TYR A   3       9.206   1.969 143.208  0.00  0.00    +0.150 HD
BRANCH  85  89
ATOM     89  CA  ARG A   2       7.487   2.562 145.013  0.00  0.00    +0.149 C 
BRANCH  89  91
ATOM     90  C   ASP A   1       6.199   4.084 146.430  0.00  0.00    +0.239 C 
ATOM     91  N   ARG A   2       7.203   3.220 146.279  0.00  0.00    -0.297 N 
ATOM     92  H   ARG A   2       7.807   3.008 147.099  0.00  0.00    +0.150 HD
ATOM     93  O   ASP A   1       5.421   4.397 145.508  0.00  0.00    -0.274 OA
BRANCH  90  94
ATOM     94  CA  ASP A   1       6.043   4.700 147.834  0.00  0.00    +0.156 C 
BRANCH  94  95
ATOM     95  N   ASP A   1       6.381   6.114 147.728  0.00  0.00    -0.238 NA
ATOM     96  H   ASP A   1       5.691   6.753 147.285  0.00  0.00    +0.142 HD
ENDBRANCH  94  95
BRANCH  94  97
ATOM     97  CB  ASP A   1       4.589   4.571 148.319  0.00  0.00    +0.140 C 
BRANCH  97  98
ATOM     98  CG  ASP A   1       4.144   3.143 148.505  0.00  0.00    +0.367 C 
ATOM     99  OD2 ASP A   1       2.946   2.940 148.813  0.00  0.00    -0.246 OA
ATOM    100  OD1 ASP A   1       4.965   2.215 148.354  0.00  0.00    -0.246 OA
ENDBRANCH  97  98
ENDBRANCH  94  97
ENDBRANCH  90  94
ENDBRANCH  89  91
BRANCH  89 101
ATOM    101  CB  ARG A   2       6.201   1.974 144.473  0.00  0.00    +0.033 C 
BRANCH 101 102
ATOM    102  CG  ARG A   2       5.742   0.759 145.232  0.00  0.00    +0.045 C 
BRANCH 102 103
ATOM    103  CD  ARG A   2       4.904  -0.069 144.300  0.00  0.00    +0.174 C 
BRANCH 103 104
ATOM    104  NE  ARG A   2       4.091  -1.063 144.970  0.00  0.00    -0.265 N 
ATOM    105  HE  ARG A   2       3.136  -0.792 145.281  0.00  0.00    +0.259 HD
ATOM    106  CZ  ARG A   2       4.503  -2.300 145.206  0.00  0.00    +0.342 C 
ATOM    107  NH2 ARG A   2       3.690  -3.171 145.796  0.00  0.00    -0.292 N 
ATOM    108 HH21 ARG A   2       2.730  -2.882 146.073  0.00  0.00    +0.255 HD
ATOM    109 HH22 ARG A   2       4.014  -4.142 145.981  0.00  0.00    +0.255 HD
ATOM    110  NH1 ARG A   2       5.723  -2.664 144.821  0.00  0.00    -0.292 N 
ATOM    111 HH11 ARG A   2       6.058  -3.632 145.001  0.00  0.00    +0.255 HD
ATOM    112 HH12 ARG A   2       6.342  -1.980 144.340  0.00  0.00    +0.255 HD
ENDBRANCH 103 104
ENDBRANCH 102 103
ENDBRANCH 101 102
ENDBRANCH  89 101
ENDBRANCH  85  89
ENDBRANCH  84  87
BRANCH  84 113
ATOM    113  CB  TYR A   3      10.778   4.616 142.853  0.00  0.00    +0.055 C 
BRANCH 113 114
ATOM    114  CG  TYR A   3      11.312   5.794 142.099  0.00  0.00    -0.020 A 
ATOM    115  CD2 TYR A   3      12.686   6.029 142.026  0.00  0.00    -0.001 A 
ATOM    116  CE2 TYR A   3      13.197   7.165 141.410  0.00  0.00    +0.036 A 
ATOM    117  CZ  TYR A   3      12.332   8.069 140.862  0.00  0.00    +0.134 A 
ATOM    118  CE1 TYR A   3      10.961   7.847 140.916  0.00  0.00    +0.036 A 
ATOM    119  CD1 TYR A   3      10.462   6.719 141.529  0.00  0.00    -0.001 A 
BRANCH 117 120
ATOM    120  OH  TYR A   3      12.816   9.223 140.296  0.00  0.00    -0.506 OA
ATOM    121  HH  TYR A   3      13.307   9.744 140.980  0.00  0.00    +0.292 HD
ENDBRANCH 117 120
ENDBRANCH 113 114
ENDBRANCH  84 113
ENDBRANCH  80  84
ENDBRANCH  79  82
BRANCH  79 122
ATOM    122  CB  VAL A   4      13.595   3.172 139.257  0.00  0.00    +0.027 C 
ATOM    123  CG2 VAL A   4      13.315   4.507 138.606  0.00  0.00    +0.002 C 
ATOM    124  CG1 VAL A   4      14.442   2.256 138.341  0.00  0.00    +0.002 C 
ENDBRANCH  79 122
ENDBRANCH  75  79
ENDBRANCH  74  76
BRANCH  74 125
ATOM    125  CB  TYR A   5      13.478  -0.566 143.206  0.00  0.00    +0.055 C 
BRANCH 125 126
ATOM    126  CG  TYR A   5      14.823   0.081 143.437  0.00  0.00    -0.020 A 
ATOM    127  CD2 TYR A   5      14.931   1.264 144.165  0.00  0.00    -0.001 A 
ATOM    128  CE2 TYR A   5      16.157   1.939 144.272  0.00  0.00    +0.036 A 
ATOM    129  CZ  TYR A   5      17.285   1.421 143.645  0.00  0.00    +0.134 A 
ATOM    130  CE1 TYR A   5      17.204   0.236 142.932  0.00  0.00    +0.036 A 
ATOM    131  CD1 TYR A   5      15.973  -0.431 142.830  0.00  0.00    -0.001 A 
BRANCH 129 132
ATOM    132  OH  TYR A   5      18.468   2.143 143.664  0.00  0.00    -0.506 OA
ATOM    133  HH  TYR A   5      19.168   1.640 143.178  0.00  0.00    +0.292 HD
ENDBRANCH 129 132
ENDBRANCH 125 126
ENDBRANCH  74 125
ENDBRANCH  70  74
ENDBRANCH   1  71
BRANCH   1 134
ATOM    134  CB  SER A   6       8.289  -1.032 142.189  0.00  0.00    +0.166 C 
BRANCH 134 135
ATOM    135  OG  SER A   6       7.845  -1.645 143.385  0.00  0.00    -0.380 OA
ATOM    136  H   SER A   6       8.577  -1.635 144.051  0.00  0.00    +0.211 HD
ENDBRANCH 134 135
ENDBRANCH   1 134
TORSDOF 54
REMARK  Name = ../refined-set-2016/3tmk/3tmk_pocket.pdb
REMARK  319 active torsions:
REMARK  status: ('A' for Active; 'I' for Inactive)
REMARK    1  A    between atoms: _1  and  _3
REMARK    2  A    between atoms: _3  and  _4
REMARK    3  A    between atoms: _3  and  _6
REMARK    4  A    between atoms: _6  and  _7
REMARK    5  A    between atoms: _10  and  _12
REMARK    6  A    between atoms: _12  and  _13
REMARK    7  A    between atoms: _12  and  _15
REMARK    8  A    between atoms: _15  and  _16
REMARK    9  A    between atoms: _16  and  _17
REMARK   10  A    between atoms: _20  and  _22
REMARK   11  A    between atoms: _22  and  _23
REMARK   12  A    between atoms: _25  and  _27
REMARK   13  A    between atoms: _27  and  _28
REMARK   14  A    between atoms: _27  and  _30
REMARK   15  A    between atoms: _30  and  _31
REMARK   16  A    between atoms: _34  and  _36
REMARK   17  A    between atoms: _36  and  _37
REMARK   18  A    between atoms: _36  and  _39
REMARK   19  A    between atoms: _39  and  _40
REMARK   20  A    between atoms: _43  and  _45
REMARK   21  A    between atoms: _45  and  _46
REMARK   22  A    between atoms: _45  and  _48
REMARK   23  A    between atoms: _48  and  _49
REMARK   24  A    between atoms: _49  and  _50
REMARK   25  A    between atoms: _50  and  _51
REMARK   26  A    between atoms: _60  and  _62
REMARK   27  A    between atoms: _62  and  _63
REMARK   28  A    between atoms: _62  and  _65
REMARK   29  A    between atoms: _65  and  _66
REMARK   30  A    between atoms: _69  and  _71
REMARK   31  A    between atoms: _71  and  _72
REMARK   32  A    between atoms: _74  and  _76
REMARK   33  A    between atoms: _76  and  _77
REMARK   34  A    between atoms: _76  and  _79
REMARK   35  A    between atoms: _79  and  _80
REMARK   36  A    between atoms: _80  and  _81
REMARK   37  A    between atoms: _81  and  _82
REMARK   38  A    between atoms: _82  and  _83
REMARK   39  A    between atoms: _87  and  _89
REMARK   40  A    between atoms: _89  and  _90
REMARK   41  A    between atoms: _89  and  _92
REMARK   42  A    between atoms: _92  and  _93
REMARK   43  A    between atoms: _96  and  _98
REMARK   44  A    between atoms: _98  and  _99
REMARK   45  A    between atoms: _98  and  _101
REMARK   46  A    between atoms: _101  and  _102
REMARK   47  A    between atoms: _105  and  _107
REMARK   48  A    between atoms: _107  and  _108
REMARK   49  A    between atoms: _107  and  _110
REMARK   50  A    between atoms: _110  and  _111
REMARK   51  A    between atoms: _111  and  _112
REMARK   52  A    between atoms: _117  and  _119
REMARK   53  A    between atoms: _119  and  _120
REMARK   54  A    between atoms: _119  and  _122
REMARK   55  A    between atoms: _124  and  _126
REMARK   56  A    between atoms: _126  and  _127
REMARK   57  A    between atoms: _126  and  _129
REMARK   58  A    between atoms: _129  and  _130
REMARK   59  A    between atoms: _135  and  _137
REMARK   60  A    between atoms: _137  and  _138
REMARK   61  A    between atoms: _137  and  _140
REMARK   62  A    between atoms: _140  and  _141
REMARK   63  A    between atoms: _144  and  _146
REMARK   64  A    between atoms: _146  and  _147
REMARK   65  A    between atoms: _146  and  _149
REMARK   66  A    between atoms: _149  and  _150
REMARK   67  A    between atoms: _150  and  _151
REMARK   68  A    between atoms: _151  and  _152
REMARK   69  A    between atoms: _152  and  _153
REMARK   70  A    between atoms: _157  and  _159
REMARK   71  A    between atoms: _159  and  _160
REMARK   72  A    between atoms: _159  and  _162
REMARK   73  A    between atoms: _162  and  _163
REMARK   74  A    between atoms: _170  and  _171
REMARK   75  A    between atoms: _176  and  _178
REMARK   76  A    between atoms: _178  and  _179
REMARK   77  A    between atoms: _178  and  _181
REMARK   78  A    between atoms: _181  and  _182
REMARK   79  A    between atoms: _182  and  _183
REMARK   80  A    between atoms: _186  and  _188
REMARK   81  A    between atoms: _188  and  _189
REMARK   82  A    between atoms: _188  and  _191
REMARK   83  A    between atoms: _191  and  _192
REMARK   84  A    between atoms: _192  and  _193
REMARK   85  A    between atoms: _193  and  _194
REMARK   86  A    between atoms: _203  and  _205
REMARK   87  A    between atoms: _205  and  _206
REMARK   88  A    between atoms: _205  and  _208
REMARK   89  A    between atoms: _208  and  _209
REMARK   90  A    between atoms: _212  and  _214
REMARK   91  A    between atoms: _214  and  _215
REMARK   92  A    between atoms: _214  and  _217
REMARK   93  A    between atoms: _217  and  _218
REMARK   94  A    between atoms: _223  and  _225
REMARK   95  A    between atoms: _225  and  _226
REMARK   96  A    between atoms: _225  and  _228
REMARK   97  A    between atoms: _228  and  _229
REMARK   98  A    between atoms: _234  and  _235
REMARK   99  A    between atoms: _237  and  _239
REMARK  100  A    between atoms: _239  and  _240
REMARK  101  A    between atoms: _239  and  _242
REMARK  102  A    between atoms: _242  and  _243
REMARK  103  A    between atoms: _246  and  _248
REMARK  104  A    between atoms: _248  and  _249
REMARK  105  A    between atoms: _248  and  _251
REMARK  106  A    between atoms: _251  and  _252
REMARK  107  A    between atoms: _255  and  _257
REMARK  108  A    between atoms: _257  and  _258
REMARK  109  A    between atoms: _257  and  _260
REMARK  110  A    between atoms: _260  and  _261
REMARK  111  A    between atoms: _264  and  _266
REMARK  112  A    between atoms: _266  and  _267
REMARK  113  A    between atoms: _266  and  _269
REMARK  114  A    between atoms: _269  and  _270
REMARK  115  A    between atoms: _275  and  _277
REMARK  116  A    between atoms: _277  and  _278
REMARK  117  A    between atoms: _277  and  _280
REMARK  118  A    between atoms: _280  and  _281
REMARK  119  A    between atoms: _284  and  _286
REMARK  120  A    between atoms: _286  and  _287
REMARK  121  A    between atoms: _286  and  _289
REMARK  122  A    between atoms: _289  and  _290
REMARK  123  A    between atoms: _296  and  _298
REMARK  124  A    between atoms: _298  and  _299
REMARK  125  A    between atoms: _298  and  _301
REMARK  126  A    between atoms: _301  and  _302
REMARK  127  A    between atoms: _304  and  _306
REMARK  128  A    between atoms: _306  and  _307
REMARK  129  A    between atoms: _310  and  _312
REMARK  130  A    between atoms: _312  and  _313
REMARK  131  A    between atoms: _312  and  _315
REMARK  132  A    between atoms: _315  and  _316
REMARK  133  A    between atoms: _321  and  _323
REMARK  134  A    between atoms: _323  and  _324
REMARK  135  A    between atoms: _323  and  _326
REMARK  136  A    between atoms: _326  and  _327
REMARK  137  A    between atoms: _327  and  _328
REMARK  138  A    between atoms: _328  and  _329
REMARK  139  A    between atoms: _338  and  _340
REMARK  140  A    between atoms: _340  and  _341
REMARK  141  A    between atoms: _340  and  _343
REMARK  142  A    between atoms: _343  and  _344
REMARK  143  A    between atoms: _347  and  _349
REMARK  144  A    between atoms: _349  and  _350
REMARK  145  A    between atoms: _349  and  _352
REMARK  146  A    between atoms: _352  and  _353
REMARK  147  A    between atoms: _353  and  _354
REMARK  148  A    between atoms: _354  and  _355
REMARK  149  A    between atoms: _364  and  _366
REMARK  150  A    between atoms: _366  and  _367
REMARK  151  A    between atoms: _366  and  _369
REMARK  152  A    between atoms: _369  and  _370
REMARK  153  A    between atoms: _375  and  _376
REMARK  154  A    between atoms: _378  and  _380
REMARK  155  A    between atoms: _380  and  _381
REMARK  156  A    between atoms: _380  and  _383
REMARK  157  A    between atoms: _386  and  _388
REMARK  158  A    between atoms: _388  and  _389
REMARK  159  A    between atoms: _388  and  _391
REMARK  160  A    between atoms: _391  and  _392
REMARK  161  A    between atoms: _397  and  _398
REMARK  162  A    between atoms: _400  and  _402
REMARK  163  A    between atoms: _402  and  _403
REMARK  164  A    between atoms: _402  and  _405
REMARK  165  A    between atoms: _405  and  _406
REMARK  166  A    between atoms: _408  and  _410
REMARK  167  A    between atoms: _410  and  _411
REMARK  168  A    between atoms: _413  and  _415
REMARK  169  A    between atoms: _415  and  _416
REMARK  170  A    between atoms: _415  and  _418
REMARK  171  A    between atoms: _421  and  _423
REMARK  172  A    between atoms: _423  and  _424
REMARK  173  A    between atoms: _427  and  _429
REMARK  174  A    between atoms: _429  and  _430
REMARK  175  A    between atoms: _429  and  _432
REMARK  176  A    between atoms: _432  and  _433
REMARK  177  A    between atoms: _438  and  _439
REMARK  178  A    between atoms: _441  and  _443
REMARK  179  A    between atoms: _443  and  _444
REMARK  180  A    between atoms: _443  and  _446
REMARK  181  A    between atoms: _446  and  _447
REMARK  182  A    between atoms: _449  and  _451
REMARK  183  A    between atoms: _451  and  _452
REMARK  184  A    between atoms: _455  and  _457
REMARK  185  A    between atoms: _457  and  _458
REMARK  186  A    between atoms: _461  and  _463
REMARK  187  A    between atoms: _463  and  _464
REMARK  188  A    between atoms: _463  and  _466
REMARK  189  A    between atoms: _466  and  _467
REMARK  190  A    between atoms: _467  and  _468
REMARK  191  A    between atoms: _468  and  _469
REMARK  192  A    between atoms: _469  and  _470
REMARK  193  A    between atoms: _474  and  _476
REMARK  194  A    between atoms: _476  and  _477
REMARK  195  A    between atoms: _476  and  _479
REMARK  196  A    between atoms: _479  and  _480
REMARK  197  A    between atoms: _483  and  _485
REMARK  198  A    between atoms: _485  and  _486
REMARK  199  A    between atoms: _485  and  _488
REMARK  200  A    between atoms: _488  and  _489
REMARK  201  A    between atoms: _492  and  _494
REMARK  202  A    between atoms: _494  and  _495
REMARK  203  A    between atoms: _494  and  _497
REMARK  204  A    between atoms: _497  and  _498
REMARK  205  A    between atoms: _501  and  _503
REMARK  206  A    between atoms: _503  and  _504
REMARK  207  A    between atoms: _503  and  _506
REMARK  208  A    between atoms: _506  and  _507
REMARK  209  A    between atoms: _512  and  _514
REMARK  210  A    between atoms: _514  and  _515
REMARK  211  A    between atoms: _514  and  _517
REMARK  212  A    between atoms: _517  and  _518
REMARK  213  A    between atoms: _523  and  _525
REMARK  214  A    between atoms: _525  and  _526
REMARK  215  A    between atoms: _529  and  _531
REMARK  216  A    between atoms: _531  and  _532
REMARK  217  A    between atoms: _531  and  _534
REMARK  218  A    between atoms: _534  and  _535
REMARK  219  A    between atoms: _535  and  _536
REMARK  220  A    between atoms: _539  and  _541
REMARK  221  A    between atoms: _541  and  _542
REMARK  222  A    between atoms: _541  and  _544
REMARK  223  A    between atoms: _544  and  _545
REMARK  224  A    between atoms: _545  and  _546
REMARK  225  A    between atoms: _546  and  _547
REMARK  226  A    between atoms: _547  and  _548
REMARK  227  A    between atoms: _552  and  _554
REMARK  228  A    between atoms: _554  and  _555
REMARK  229  A    between atoms: _554  and  _557
REMARK  230  A    between atoms: _557  and  _558
REMARK  231  A    between atoms: _560  and  _562
REMARK  232  A    between atoms: _562  and  _563
REMARK  233  A    between atoms: _565  and  _567
REMARK  234  A    between atoms: _567  and  _568
REMARK  235  A    between atoms: _567  and  _570
REMARK  236  A    between atoms: _570  and  _571
REMARK  237  A    between atoms: _574  and  _576
REMARK  238  A    between atoms: _576  and  _577
REMARK  239  A    between atoms: _576  and  _579
REMARK  240  A    between atoms: _579  and  _580
REMARK  241  A    between atoms: _580  and  _581
REMARK  242  A    between atoms: _584  and  _586
REMARK  243  A    between atoms: _586  and  _587
REMARK  244  A    between atoms: _586  and  _589
REMARK  245  A    between atoms: _589  and  _590
REMARK  246  A    between atoms: _590  and  _591
REMARK  247  A    between atoms: _591  and  _592
REMARK  248  A    between atoms: _601  and  _603
REMARK  249  A    between atoms: _603  and  _604
REMARK  250  A    between atoms: _603  and  _606
REMARK  251  A    between atoms: _606  and  _607
REMARK  252  A    between atoms: _612  and  _613
REMARK  253  A    between atoms: _615  and  _617
REMARK  254  A    between atoms: _617  and  _618
REMARK  255  A    between atoms: _617  and  _620
REMARK  256  A    between atoms: _620  and  _621
REMARK  257  A    between atoms: _621  and  _622
REMARK  258  A    between atoms: _625  and  _627
REMARK  259  A    between atoms: _627  and  _628
REMARK  260  A    between atoms: _627  and  _630
REMARK  261  A    between atoms: _630  and  _631
REMARK  262  A    between atoms: _634  and  _636
REMARK  263  A    between atoms: _636  and  _637
REMARK  264  A    between atoms: _636  and  _639
REMARK  265  A    between atoms: _639  and  _640
REMARK  266  A    between atoms: _646  and  _648
REMARK  267  A    between atoms: _648  and  _649
REMARK  268  A    between atoms: _648  and  _651
REMARK  269  A    between atoms: _651  and  _652
REMARK  270  A    between atoms: _652  and  _653
REMARK  271  A    between atoms: _658  and  _660
REMARK  272  A    between atoms: _660  and  _661
REMARK  273  A    between atoms: _660  and  _663
REMARK  274  A    between atoms: _666  and  _668
REMARK  275  A    between atoms: _668  and  _669
REMARK  276  A    between atoms: _668  and  _671
REMARK  277  A    between atoms: _671  and  _672
REMARK  278  A    between atoms: _678  and  _680
REMARK  279  A    between atoms: _680  and  _681
REMARK  280  A    between atoms: _680  and  _683
REMARK  281  A    between atoms: _686  and  _688
REMARK  282  A    between atoms: _688  and  _689
REMARK  283  A    between atoms: _688  and  _691
REMARK  284  A    between atoms: _691  and  _692
REMARK  285  A    between atoms: _695  and  _697
REMARK  286  A    between atoms: _697  and  _698
REMARK  287  A    between atoms: _697  and  _700
REMARK  288  A    between atoms: _700  and  _701
REMARK  289  A    between atoms: _706  and  _708
REMARK  290  A    between atoms: _708  and  _709
REMARK  291  A    between atoms: _708  and  _711
REMARK  292  A    between atoms: _711  and  _712
REMARK  293  A    between atoms: _712  and  _713
REMARK  294  A    between atoms: _713  and  _714
REMARK  295  A    between atoms: _714  and  _715
REMARK  296  A    between atoms: _719  and  _721
REMARK  297  A    between atoms: _721  and  _722
REMARK  298  A    between atoms: _724  and  _726
REMARK  299  A    between atoms: _726  and  _727
REMARK  300  A    between atoms: _726  and  _729
REMARK  301  A    between atoms: _729  and  _730
REMARK  302  A    between atoms: _733  and  _735
REMARK  303  A    between atoms: _735  and  _736
REMARK  304  A    between atoms: _735  and  _738
REMARK  305  A    between atoms: _738  and  _739
REMARK  306  A    between atoms: _739  and  _740
REMARK  307  A    between atoms: _745  and  _747
REMARK  308  A    between atoms: _747  and  _748
REMARK  309  A    between atoms: _747  and  _750
REMARK  310  A    between atoms: _750  and  _751
REMARK  311  A    between atoms: _751  and  _752
REMARK  312  A    between atoms: _755  and  _757
REMARK  313  A    between atoms: _757  and  _758
REMARK  314  A    between atoms: _757  and  _760
REMARK  315  A    between atoms: _763  and  _765
REMARK  316  A    between atoms: _765  and  _766
REMARK  317  A    between atoms: _765  and  _768
REMARK  318  A    between atoms: _768  and  _769
REMARK  319  A    between atoms: _769  and  _770
REMARK                            x       y       z     vdW  Elec       q    Type
REMARK                         _______ _______ _______ _____ _____    ______ ____
ROOT
ATOM      1  CA  ASP A   1      14.041   4.854 133.797  0.00  0.00    +0.144 C 
ENDROOT
BRANCH   1   2
ATOM      2  N   ASP A   1      13.957   4.028 132.572  0.00  0.00    -0.239 NA
ATOM      3  H   ASP A   1      14.253   3.032 132.610  0.00  0.00    +0.142 HD
ENDBRANCH   1   2
BRANCH   1   4
ATOM      4  C   ASP A   1      15.375   5.562 133.940  0.00  0.00    +0.225 C 
ATOM      5  O   ASP A   1      15.525   6.462 134.752  0.00  0.00    -0.287 OA
ENDBRANCH   1   4
BRANCH   1   6
ATOM      6  CB  ASP A   1      13.774   3.988 135.053  0.00  0.00    +0.139 C 
BRANCH   6   7
ATOM      7  CG  ASP A   1      12.284   3.659 135.238  0.00  0.00    +0.367 C 
ATOM      8  OD2 ASP A   1      11.954   2.503 135.599  0.00  0.00    -0.246 OA
ATOM      9  OD1 ASP A   1      11.450   4.558 135.013  0.00  0.00    -0.246 OA
ENDBRANCH   6   7
ENDBRANCH   1   6
TORSDOF 4
REMARK  Name = ../refined-set-2016/3tmk/3tmk_pocket.pdb
REMARK  319 active torsions:
REMARK  status: ('A' for Active; 'I' for Inactive)
REMARK    1  A    between atoms: _1  and  _3
REMARK    2  A    between atoms: _3  and  _4
REMARK    3  A    between atoms: _3  and  _6
REMARK    4  A    between atoms: _6  and  _7
REMARK    5  A    between atoms: _10  and  _12
REMARK    6  A    between atoms: _12  and  _13
REMARK    7  A    between atoms: _12  and  _15
REMARK    8  A    between atoms: _15  and  _16
REMARK    9  A    between atoms: _16  and  _17
REMARK   10  A    between atoms: _20  and  _22
REMARK   11  A    between atoms: _22  and  _23
REMARK   12  A    between atoms: _25  and  _27
REMARK   13  A    between atoms: _27  and  _28
REMARK   14  A    between atoms: _27  and  _30
REMARK   15  A    between atoms: _30  and  _31
REMARK   16  A    between atoms: _34  and  _36
REMARK   17  A    between atoms: _36  and  _37
REMARK   18  A    between atoms: _36  and  _39
REMARK   19  A    between atoms: _39  and  _40
REMARK   20  A    between atoms: _43  and  _45
REMARK   21  A    between atoms: _45  and  _46
REMARK   22  A    between atoms: _45  and  _48
REMARK   23  A    between atoms: _48  and  _49
REMARK   24  A    between atoms: _49  and  _50
REMARK   25  A    between atoms: _50  and  _51
REMARK   26  A    between atoms: _60  and  _62
REMARK   27  A    between atoms: _62  and  _63
REMARK   28  A    between atoms: _62  and  _65
REMARK   29  A    between atoms: _65  and  _66
REMARK   30  A    between atoms: _69  and  _71
REMARK   31  A    between atoms: _71  and  _72
REMARK   32  A    between atoms: _74  and  _76
REMARK   33  A    between atoms: _76  and  _77
REMARK   34  A    between atoms: _76  and  _79
REMARK   35  A    between atoms: _79  and  _80
REMARK   36  A    between atoms: _80  and  _81
REMARK   37  A    between atoms: _81  and  _82
REMARK   38  A    between atoms: _82  and  _83
REMARK   39  A    between atoms: _87  and  _89
REMARK   40  A    between atoms: _89  and  _90
REMARK   41  A    between atoms: _89  and  _92
REMARK   42  A    between atoms: _92  and  _93
REMARK   43  A    between atoms: _96  and  _98
REMARK   44  A    between atoms: _98  and  _99
REMARK   45  A    between atoms: _98  and  _101
REMARK   46  A    between atoms: _101  and  _102
REMARK   47  A    between atoms: _105  and  _107
REMARK   48  A    between atoms: _107  and  _108
REMARK   49  A    between atoms: _107  and  _110
REMARK   50  A    between atoms: _110  and  _111
REMARK   51  A    between atoms: _111  and  _112
REMARK   52  A    between atoms: _117  and  _119
REMARK   53  A    between atoms: _119  and  _120
REMARK   54  A    between atoms: _119  and  _122
REMARK   55  A    between atoms: _124  and  _126
REMARK   56  A    between atoms: _126  and  _127
REMARK   57  A    between atoms: _126  and  _129
REMARK   58  A    between atoms: _129  and  _130
REMARK   59  A    between atoms: _135  and  _137
REMARK   60  A    between atoms: _137  and  _138
REMARK   61  A    between atoms: _137  and  _140
REMARK   62  A    between atoms: _140  and  _141
REMARK   63  A    between atoms: _144  and  _146
REMARK   64  A    between atoms: _146  and  _147
REMARK   65  A    between atoms: _146  and  _149
REMARK   66  A    between atoms: _149  and  _150
REMARK   67  A    between atoms: _150  and  _151
REMARK   68  A    between atoms: _151  and  _152
REMARK   69  A    between atoms: _152  and  _153
REMARK   70  A    between atoms: _157  and  _159
REMARK   71  A    between atoms: _159  and  _160
REMARK   72  A    between atoms: _159  and  _162
REMARK   73  A    between atoms: _162  and  _163
REMARK   74  A    between atoms: _170  and  _171
REMARK   75  A    between atoms: _176  and  _178
REMARK   76  A    between atoms: _178  and  _179
REMARK   77  A    between atoms: _178  and  _181
REMARK   78  A    between atoms: _181  and  _182
REMARK   79  A    between atoms: _182  and  _183
REMARK   80  A    between atoms: _186  and  _188
REMARK   81  A    between atoms: _188  and  _189
REMARK   82  A    between atoms: _188  and  _191
REMARK   83  A    between atoms: _191  and  _192
REMARK   84  A    between atoms: _192  and  _193
REMARK   85  A    between atoms: _193  and  _194
REMARK   86  A    between atoms: _203  and  _205
REMARK   87  A    between atoms: _205  and  _206
REMARK   88  A    between atoms: _205  and  _208
REMARK   89  A    between atoms: _208  and  _209
REMARK   90  A    between atoms: _212  and  _214
REMARK   91  A    between atoms: _214  and  _215
REMARK   92  A    between atoms: _214  and  _217
REMARK   93  A    between atoms: _217  and  _218
REMARK   94  A    between atoms: _223  and  _225
REMARK   95  A    between atoms: _225  and  _226
REMARK   96  A    between atoms: _225  and  _228
REMARK   97  A    between atoms: _228  and  _229
REMARK   98  A    between atoms: _234  and  _235
REMARK   99  A    between atoms: _237  and  _239
REMARK  100  A    between atoms: _239  and  _240
REMARK  101  A    between atoms: _239  and  _242
REMARK  102  A    between atoms: _242  and  _243
REMARK  103  A    between atoms: _246  and  _248
REMARK  104  A    between atoms: _248  and  _249
REMARK  105  A    between atoms: _248  and  _251
REMARK  106  A    between atoms: _251  and  _252
REMARK  107  A    between atoms: _255  and  _257
REMARK  108  A    between atoms: _257  and  _258
REMARK  109  A    between atoms: _257  and  _260
REMARK  110  A    between atoms: _260  and  _261
REMARK  111  A    between atoms: _264  and  _266
REMARK  112  A    between atoms: _266  and  _267
REMARK  113  A    between atoms: _266  and  _269
REMARK  114  A    between atoms: _269  and  _270
REMARK  115  A    between atoms: _275  and  _277
REMARK  116  A    between atoms: _277  and  _278
REMARK  117  A    between atoms: _277  and  _280
REMARK  118  A    between atoms: _280  and  _281
REMARK  119  A    between atoms: _284  and  _286
REMARK  120  A    between atoms: _286  and  _287
REMARK  121  A    between atoms: _286  and  _289
REMARK  122  A    between atoms: _289  and  _290
REMARK  123  A    between atoms: _296  and  _298
REMARK  124  A    between atoms: _298  and  _299
REMARK  125  A    between atoms: _298  and  _301
REMARK  126  A    between atoms: _301  and  _302
REMARK  127  A    between atoms: _304  and  _306
REMARK  128  A    between atoms: _306  and  _307
REMARK  129  A    between atoms: _310  and  _312
REMARK  130  A    between atoms: _312  and  _313
REMARK  131  A    between atoms: _312  and  _315
REMARK  132  A    between atoms: _315  and  _316
REMARK  133  A    between atoms: _321  and  _323
REMARK  134  A    between atoms: _323  and  _324
REMARK  135  A    between atoms: _323  and  _326
REMARK  136  A    between atoms: _326  and  _327
REMARK  137  A    between atoms: _327  and  _328
REMARK  138  A    between atoms: _328  and  _329
REMARK  139  A    between atoms: _338  and  _340
REMARK  140  A    between atoms: _340  and  _341
REMARK  141  A    between atoms: _340  and  _343
REMARK  142  A    between atoms: _343  and  _344
REMARK  143  A    between atoms: _347  and  _349
REMARK  144  A    between atoms: _349  and  _350
REMARK  145  A    between atoms: _349  and  _352
REMARK  146  A    between atoms: _352  and  _353
REMARK  147  A    between atoms: _353  and  _354
REMARK  148  A    between atoms: _354  and  _355
REMARK  149  A    between atoms: _364  and  _366
REMARK  150  A    between atoms: _366  and  _367
REMARK  151  A    between atoms: _366  and  _369
REMARK  152  A    between atoms: _369  and  _370
REMARK  153  A    between atoms: _375  and  _376
REMARK  154  A    between atoms: _378  and  _380
REMARK  155  A    between atoms: _380  and  _381
REMARK  156  A    between atoms: _380  and  _383
REMARK  157  A    between atoms: _386  and  _388
REMARK  158  A    between atoms: _388  and  _389
REMARK  159  A    between atoms: _388  and  _391
REMARK  160  A    between atoms: _391  and  _392
REMARK  161  A    between atoms: _397  and  _398
REMARK  162  A    between atoms: _400  and  _402
REMARK  163  A    between atoms: _402  and  _403
REMARK  164  A    between atoms: _402  and  _405
REMARK  165  A    between atoms: _405  and  _406
REMARK  166  A    between atoms: _408  and  _410
REMARK  167  A    between atoms: _410  and  _411
REMARK  168  A    between atoms: _413  and  _415
REMARK  169  A    between atoms: _415  and  _416
REMARK  170  A    between atoms: _415  and  _418
REMARK  171  A    between atoms: _421  and  _423
REMARK  172  A    between atoms: _423  and  _424
REMARK  173  A    between atoms: _427  and  _429
REMARK  174  A    between atoms: _429  and  _430
REMARK  175  A    between atoms: _429  and  _432
REMARK  176  A    between atoms: _432  and  _433
REMARK  177  A    between atoms: _438  and  _439
REMARK  178  A    between atoms: _441  and  _443
REMARK  179  A    between atoms: _443  and  _444
REMARK  180  A    between atoms: _443  and  _446
REMARK  181  A    between atoms: _446  and  _447
REMARK  182  A    between atoms: _449  and  _451
REMARK  183  A    between atoms: _451  and  _452
REMARK  184  A    between atoms: _455  and  _457
REMARK  185  A    between atoms: _457  and  _458
REMARK  186  A    between atoms: _461  and  _463
REMARK  187  A    between atoms: _463  and  _464
REMARK  188  A    between atoms: _463  and  _466
REMARK  189  A    between atoms: _466  and  _467
REMARK  190  A    between atoms: _467  and  _468
REMARK  191  A    between atoms: _468  and  _469
REMARK  192  A    between atoms: _469  and  _470
REMARK  193  A    between atoms: _474  and  _476
REMARK  194  A    between atoms: _476  and  _477
REMARK  195  A    between atoms: _476  and  _479
REMARK  196  A    between atoms: _479  and  _480
REMARK  197  A    between atoms: _483  and  _485
REMARK  198  A    between atoms: _485  and  _486
REMARK  199  A    between atoms: _485  and  _488
REMARK  200  A    between atoms: _488  and  _489
REMARK  201  A    between atoms: _492  and  _494
REMARK  202  A    between atoms: _494  and  _495
REMARK  203  A    between atoms: _494  and  _497
REMARK  204  A    between atoms: _497  and  _498
REMARK  205  A    between atoms: _501  and  _503
REMARK  206  A    between atoms: _503  and  _504
REMARK  207  A    between atoms: _503  and  _506
REMARK  208  A    between atoms: _506  and  _507
REMARK  209  A    between atoms: _512  and  _514
REMARK  210  A    between atoms: _514  and  _515
REMARK  211  A    between atoms: _514  and  _517
REMARK  212  A    between atoms: _517  and  _518
REMARK  213  A    between atoms: _523  and  _525
REMARK  214  A    between atoms: _525  and  _526
REMARK  215  A    between atoms: _529  and  _531
REMARK  216  A    between atoms: _531  and  _532
REMARK  217  A    between atoms: _531  and  _534
REMARK  218  A    between atoms: _534  and  _535
REMARK  219  A    between atoms: _535  and  _536
REMARK  220  A    between atoms: _539  and  _541
REMARK  221  A    between atoms: _541  and  _542
REMARK  222  A    between atoms: _541  and  _544
REMARK  223  A    between atoms: _544  and  _545
REMARK  224  A    between atoms: _545  and  _546
REMARK  225  A    between atoms: _546  and  _547
REMARK  226  A    between atoms: _547  and  _548
REMARK  227  A    between atoms: _552  and  _554
REMARK  228  A    between atoms: _554  and  _555
REMARK  229  A    between atoms: _554  and  _557
REMARK  230  A    between atoms: _557  and  _558
REMARK  231  A    between atoms: _560  and  _562
REMARK  232  A    between atoms: _562  and  _563
REMARK  233  A    between atoms: _565  and  _567
REMARK  234  A    between atoms: _567  and  _568
REMARK  235  A    between atoms: _567  and  _570
REMARK  236  A    between atoms: _570  and  _571
REMARK  237  A    between atoms: _574  and  _576
REMARK  238  A    between atoms: _576  and  _577
REMARK  239  A    between atoms: _576  and  _579
REMARK  240  A    between atoms: _579  and  _580
REMARK  241  A    between atoms: _580  and  _581
REMARK  242  A    between atoms: _584  and  _586
REMARK  243  A    between atoms: _586  and  _587
REMARK  244  A    between atoms: _586  and  _589
REMARK  245  A    between atoms: _589  and  _590
REMARK  246  A    between atoms: _590  and  _591
REMARK  247  A    between atoms: _591  and  _592
REMARK  248  A    between atoms: _601  and  _603
REMARK  249  A    between atoms: _603  and  _604
REMARK  250  A    between atoms: _603  and  _606
REMARK  251  A    between atoms: _606  and  _607
REMARK  252  A    between atoms: _612  and  _613
REMARK  253  A    between atoms: _615  and  _617
REMARK  254  A    between atoms: _617  and  _618
REMARK  255  A    between atoms: _617  and  _620
REMARK  256  A    between atoms: _620  and  _621
REMARK  257  A    between atoms: _621  and  _622
REMARK  258  A    between atoms: _625  and  _627
REMARK  259  A    between atoms: _627  and  _628
REMARK  260  A    between atoms: _627  and  _630
REMARK  261  A    between atoms: _630  and  _631
REMARK  262  A    between atoms: _634  and  _636
REMARK  263  A    between atoms: _636  and  _637
REMARK  264  A    between atoms: _636  and  _639
REMARK  265  A    between atoms: _639  and  _640
REMARK  266  A    between atoms: _646  and  _648
REMARK  267  A    between atoms: _648  and  _649
REMARK  268  A    between atoms: _648  and  _651
REMARK  269  A    between atoms: _651  and  _652
REMARK  270  A    between atoms: _652  and  _653
REMARK  271  A    between atoms: _658  and  _660
REMARK  272  A    between atoms: _660  and  _661
REMARK  273  A    between atoms: _660  and  _663
REMARK  274  A    between atoms: _666  and  _668
REMARK  275  A    between atoms: _668  and  _669
REMARK  276  A    between atoms: _668  and  _671
REMARK  277  A    between atoms: _671  and  _672
REMARK  278  A    between atoms: _678  and  _680
REMARK  279  A    between atoms: _680  and  _681
REMARK  280  A    between atoms: _680  and  _683
REMARK  281  A    between atoms: _686  and  _688
REMARK  282  A    between atoms: _688  and  _689
REMARK  283  A    between atoms: _688  and  _691
REMARK  284  A    between atoms: _691  and  _692
REMARK  285  A    between atoms: _695  and  _697
REMARK  286  A    between atoms: _697  and  _698
REMARK  287  A    between atoms: _697  and  _700
REMARK  288  A    between atoms: _700  and  _701
REMARK  289  A    between atoms: _706  and  _708
REMARK  290  A    between atoms: _708  and  _709
REMARK  291  A    between atoms: _708  and  _711
REMARK  292  A    between atoms: _711  and  _712
REMARK  293  A    between atoms: _712  and  _713
REMARK  294  A    between atoms: _713  and  _714
REMARK  295  A    between atoms: _714  and  _715
REMARK  296  A    between atoms: _719  and  _721
REMARK  297  A    between atoms: _721  and  _722
REMARK  298  A    between atoms: _724  and  _726
REMARK  299  A    between atoms: _726  and  _727
REMARK  300  A    between atoms: _726  and  _729
REMARK  301  A    between atoms: _729  and  _730
REMARK  302  A    between atoms: _733  and  _735
REMARK  303  A    between atoms: _735  and  _736
REMARK  304  A    between atoms: _735  and  _738
REMARK  305  A    between atoms: _738  and  _739
REMARK  306  A    between atoms: _739  and  _740
REMARK  307  A    between atoms: _745  and  _747
REMARK  308  A    between atoms: _747  and  _748
REMARK  309  A    between atoms: _747  and  _750
REMARK  310  A    between atoms: _750  and  _751
REMARK  311  A    between atoms: _751  and  _752
REMARK  312  A    between atoms: _755  and  _757
REMARK  313  A    between atoms: _757  and  _758
REMARK  314  A    between atoms: _757  and  _760
REMARK  315  A    between atoms: _763  and  _765
REMARK  316  A    between atoms: _765  and  _766
REMARK  317  A    between atoms: _765  and  _768
REMARK  318  A    between atoms: _768  and  _769
REMARK  319  A    between atoms: _769  and  _770
REMARK                            x       y       z     vdW  Elec       q    Type
REMARK                         _______ _______ _______ _____ _____    ______ ____
ROOT
ATOM      1  CA  LEU A   1      10.549  -3.522 153.467  0.00  0.00    +0.133 C 
ENDROOT
BRANCH   1   2
ATOM      2  N   LEU A   1      11.257  -2.754 152.453  0.00  0.00    -0.239 NA
ATOM      3  H   LEU A   1      10.719  -2.147 151.803  0.00  0.00    +0.142 HD
ENDBRANCH   1   2
BRANCH   1   4
ATOM      4  C   LEU A   1      10.473  -4.967 153.008  0.00  0.00    +0.224 C 
ATOM      5  O   LEU A   1       9.662  -5.318 152.159  0.00  0.00    -0.287 OA
ENDBRANCH   1   4
BRANCH   1   6
ATOM      6  CB  LEU A   1       9.149  -2.939 153.679  0.00  0.00    +0.025 C 
BRANCH   6   7
ATOM      7  CG  LEU A   1       9.199  -1.452 154.010  0.00  0.00    +0.002 C 
ATOM      8  CD2 LEU A   1      10.376  -1.195 154.969  0.00  0.00    +0.000 C 
ATOM      9  CD1 LEU A   1       7.861  -0.997 154.625  0.00  0.00    +0.000 C 
ENDBRANCH   6   7
ENDBRANCH   1   6
TORSDOF 4
REMARK  Name = ../refined-set-2016/3tmk/3tmk_pocket.pdb
REMARK  319 active torsions:
REMARK  status: ('A' for Active; 'I' for Inactive)
REMARK    1  A    between atoms: _1  and  _3
REMARK    2  A    between atoms: _3  and  _4
REMARK    3  A    between atoms: _3  and  _6
REMARK    4  A    between atoms: _6  and  _7
REMARK    5  A    between atoms: _10  and  _12
REMARK    6  A    between atoms: _12  and  _13
REMARK    7  A    between atoms: _12  and  _15
REMARK    8  A    between atoms: _15  and  _16
REMARK    9  A    between atoms: _16  and  _17
REMARK   10  A    between atoms: _20  and  _22
REMARK   11  A    between atoms: _22  and  _23
REMARK   12  A    between atoms: _25  and  _27
REMARK   13  A    between atoms: _27  and  _28
REMARK   14  A    between atoms: _27  and  _30
REMARK   15  A    between atoms: _30  and  _31
REMARK   16  A    between atoms: _34  and  _36
REMARK   17  A    between atoms: _36  and  _37
REMARK   18  A    between atoms: _36  and  _39
REMARK   19  A    between atoms: _39  and  _40
REMARK   20  A    between atoms: _43  and  _45
REMARK   21  A    between atoms: _45  and  _46
REMARK   22  A    between atoms: _45  and  _48
REMARK   23  A    between atoms: _48  and  _49
REMARK   24  A    between atoms: _49  and  _50
REMARK   25  A    between atoms: _50  and  _51
REMARK   26  A    between atoms: _60  and  _62
REMARK   27  A    between atoms: _62  and  _63
REMARK   28  A    between atoms: _62  and  _65
REMARK   29  A    between atoms: _65  and  _66
REMARK   30  A    between atoms: _69  and  _71
REMARK   31  A    between atoms: _71  and  _72
REMARK   32  A    between atoms: _74  and  _76
REMARK   33  A    between atoms: _76  and  _77
REMARK   34  A    between atoms: _76  and  _79
REMARK   35  A    between atoms: _79  and  _80
REMARK   36  A    between atoms: _80  and  _81
REMARK   37  A    between atoms: _81  and  _82
REMARK   38  A    between atoms: _82  and  _83
REMARK   39  A    between atoms: _87  and  _89
REMARK   40  A    between atoms: _89  and  _90
REMARK   41  A    between atoms: _89  and  _92
REMARK   42  A    between atoms: _92  and  _93
REMARK   43  A    between atoms: _96  and  _98
REMARK   44  A    between atoms: _98  and  _99
REMARK   45  A    between atoms: _98  and  _101
REMARK   46  A    between atoms: _101  and  _102
REMARK   47  A    between atoms: _105  and  _107
REMARK   48  A    between atoms: _107  and  _108
REMARK   49  A    between atoms: _107  and  _110
REMARK   50  A    between atoms: _110  and  _111
REMARK   51  A    between atoms: _111  and  _112
REMARK   52  A    between atoms: _117  and  _119
REMARK   53  A    between atoms: _119  and  _120
REMARK   54  A    between atoms: _119  and  _122
REMARK   55  A    between atoms: _124  and  _126
REMARK   56  A    between atoms: _126  and  _127
REMARK   57  A    between atoms: _126  and  _129
REMARK   58  A    between atoms: _129  and  _130
REMARK   59  A    between atoms: _135  and  _137
REMARK   60  A    between atoms: _137  and  _138
REMARK   61  A    between atoms: _137  and  _140
REMARK   62  A    between atoms: _140  and  _141
REMARK   63  A    between atoms: _144  and  _146
REMARK   64  A    between atoms: _146  and  _147
REMARK   65  A    between atoms: _146  and  _149
REMARK   66  A    between atoms: _149  and  _150
REMARK   67  A    between atoms: _150  and  _151
REMARK   68  A    between atoms: _151  and  _152
REMARK   69  A    between atoms: _152  and  _153
REMARK   70  A    between atoms: _157  and  _159
REMARK   71  A    between atoms: _159  and  _160
REMARK   72  A    between atoms: _159  and  _162
REMARK   73  A    between atoms: _162  and  _163
REMARK   74  A    between atoms: _170  and  _171
REMARK   75  A    between atoms: _176  and  _178
REMARK   76  A    between atoms: _178  and  _179
REMARK   77  A    between atoms: _178  and  _181
REMARK   78  A    between atoms: _181  and  _182
REMARK   79  A    between atoms: _182  and  _183
REMARK   80  A    between atoms: _186  and  _188
REMARK   81  A    between atoms: _188  and  _189
REMARK   82  A    between atoms: _188  and  _191
REMARK   83  A    between atoms: _191  and  _192
REMARK   84  A    between atoms: _192  and  _193
REMARK   85  A    between atoms: _193  and  _194
REMARK   86  A    between atoms: _203  and  _205
REMARK   87  A    between atoms: _205  and  _206
REMARK   88  A    between atoms: _205  and  _208
REMARK   89  A    between atoms: _208  and  _209
REMARK   90  A    between atoms: _212  and  _214
REMARK   91  A    between atoms: _214  and  _215
REMARK   92  A    between atoms: _214  and  _217
REMARK   93  A    between atoms: _217  and  _218
REMARK   94  A    between atoms: _223  and  _225
REMARK   95  A    between atoms: _225  and  _226
REMARK   96  A    between atoms: _225  and  _228
REMARK   97  A    between atoms: _228  and  _229
REMARK   98  A    between atoms: _234  and  _235
REMARK   99  A    between atoms: _237  and  _239
REMARK  100  A    between atoms: _239  and  _240
REMARK  101  A    between atoms: _239  and  _242
REMARK  102  A    between atoms: _242  and  _243
REMARK  103  A    between atoms: _246  and  _248
REMARK  104  A    between atoms: _248  and  _249
REMARK  105  A    between atoms: _248  and  _251
REMARK  106  A    between atoms: _251  and  _252
REMARK  107  A    between atoms: _255  and  _257
REMARK  108  A    between atoms: _257  and  _258
REMARK  109  A    between atoms: _257  and  _260
REMARK  110  A    between atoms: _260  and  _261
REMARK  111  A    between atoms: _264  and  _266
REMARK  112  A    between atoms: _266  and  _267
REMARK  113  A    between atoms: _266  and  _269
REMARK  114  A    between atoms: _269  and  _270
REMARK  115  A    between atoms: _275  and  _277
REMARK  116  A    between atoms: _277  and  _278
REMARK  117  A    between atoms: _277  and  _280
REMARK  118  A    between atoms: _280  and  _281
REMARK  119  A    between atoms: _284  and  _286
REMARK  120  A    between atoms: _286  and  _287
REMARK  121  A    between atoms: _286  and  _289
REMARK  122  A    between atoms: _289  and  _290
REMARK  123  A    between atoms: _296  and  _298
REMARK  124  A    between atoms: _298  and  _299
REMARK  125  A    between atoms: _298  and  _301
REMARK  126  A    between atoms: _301  and  _302
REMARK  127  A    between atoms: _304  and  _306
REMARK  128  A    between atoms: _306  and  _307
REMARK  129  A    between atoms: _310  and  _312
REMARK  130  A    between atoms: _312  and  _313
REMARK  131  A    between atoms: _312  and  _315
REMARK  132  A    between atoms: _315  and  _316
REMARK  133  A    between atoms: _321  and  _323
REMARK  134  A    between atoms: _323  and  _324
REMARK  135  A    between atoms: _323  and  _326
REMARK  136  A    between atoms: _326  and  _327
REMARK  137  A    between atoms: _327  and  _328
REMARK  138  A    between atoms: _328  and  _329
REMARK  139  A    between atoms: _338  and  _340
REMARK  140  A    between atoms: _340  and  _341
REMARK  141  A    between atoms: _340  and  _343
REMARK  142  A    between atoms: _343  and  _344
REMARK  143  A    between atoms: _347  and  _349
REMARK  144  A    between atoms: _349  and  _350
REMARK  145  A    between atoms: _349  and  _352
REMARK  146  A    between atoms: _352  and  _353
REMARK  147  A    between atoms: _353  and  _354
REMARK  148  A    between atoms: _354  and  _355
REMARK  149  A    between atoms: _364  and  _366
REMARK  150  A    between atoms: _366  and  _367
REMARK  151  A    between atoms: _366  and  _369
REMARK  152  A    between atoms: _369  and  _370
REMARK  153  A    between atoms: _375  and  _376
REMARK  154  A    between atoms: _378  and  _380
REMARK  155  A    between atoms: _380  and  _381
REMARK  156  A    between atoms: _380  and  _383
REMARK  157  A    between atoms: _386  and  _388
REMARK  158  A    between atoms: _388  and  _389
REMARK  159  A    between atoms: _388  and  _391
REMARK  160  A    between atoms: _391  and  _392
REMARK  161  A    between atoms: _397  and  _398
REMARK  162  A    between atoms: _400  and  _402
REMARK  163  A    between atoms: _402  and  _403
REMARK  164  A    between atoms: _402  and  _405
REMARK  165  A    between atoms: _405  and  _406
REMARK  166  A    between atoms: _408  and  _410
REMARK  167  A    between atoms: _410  and  _411
REMARK  168  A    between atoms: _413  and  _415
REMARK  169  A    between atoms: _415  and  _416
REMARK  170  A    between atoms: _415  and  _418
REMARK  171  A    between atoms: _421  and  _423
REMARK  172  A    between atoms: _423  and  _424
REMARK  173  A    between atoms: _427  and  _429
REMARK  174  A    between atoms: _429  and  _430
REMARK  175  A    between atoms: _429  and  _432
REMARK  176  A    between atoms: _432  and  _433
REMARK  177  A    between atoms: _438  and  _439
REMARK  178  A    between atoms: _441  and  _443
REMARK  179  A    between atoms: _443  and  _444
REMARK  180  A    between atoms: _443  and  _446
REMARK  181  A    between atoms: _446  and  _447
REMARK  182  A    between atoms: _449  and  _451
REMARK  183  A    between atoms: _451  and  _452
REMARK  184  A    between atoms: _455  and  _457
REMARK  185  A    between atoms: _457  and  _458
REMARK  186  A    between atoms: _461  and  _463
REMARK  187  A    between atoms: _463  and  _464
REMARK  188  A    between atoms: _463  and  _466
REMARK  189  A    between atoms: _466  and  _467
REMARK  190  A    between atoms: _467  and  _468
REMARK  191  A    between atoms: _468  and  _469
REMARK  192  A    between atoms: _469  and  _470
REMARK  193  A    between atoms: _474  and  _476
REMARK  194  A    between atoms: _476  and  _477
REMARK  195  A    between atoms: _476  and  _479
REMARK  196  A    between atoms: _479  and  _480
REMARK  197  A    between atoms: _483  and  _485
REMARK  198  A    between atoms: _485  and  _486
REMARK  199  A    between atoms: _485  and  _488
REMARK  200  A    between atoms: _488  and  _489
REMARK  201  A    between atoms: _492  and  _494
REMARK  202  A    between atoms: _494  and  _495
REMARK  203  A    between atoms: _494  and  _497
REMARK  204  A    between atoms: _497  and  _498
REMARK  205  A    between atoms: _501  and  _503
REMARK  206  A    between atoms: _503  and  _504
REMARK  207  A    between atoms: _503  and  _506
REMARK  208  A    between atoms: _506  and  _507
REMARK  209  A    between atoms: _512  and  _514
REMARK  210  A    between atoms: _514  and  _515
REMARK  211  A    between atoms: _514  and  _517
REMARK  212  A    between atoms: _517  and  _518
REMARK  213  A    between atoms: _523  and  _525
REMARK  214  A    between atoms: _525  and  _526
REMARK  215  A    between atoms: _529  and  _531
REMARK  216  A    between atoms: _531  and  _532
REMARK  217  A    between atoms: _531  and  _534
REMARK  218  A    between atoms: _534  and  _535
REMARK  219  A    between atoms: _535  and  _536
REMARK  220  A    between atoms: _539  and  _541
REMARK  221  A    between atoms: _541  and  _542
REMARK  222  A    between atoms: _541  and  _544
REMARK  223  A    between atoms: _544  and  _545
REMARK  224  A    between atoms: _545  and  _546
REMARK  225  A    between atoms: _546  and  _547
REMARK  226  A    between atoms: _547  and  _548
REMARK  227  A    between atoms: _552  and  _554
REMARK  228  A    between atoms: _554  and  _555
REMARK  229  A    between atoms: _554  and  _557
REMARK  230  A    between atoms: _557  and  _558
REMARK  231  A    between atoms: _560  and  _562
REMARK  232  A    between atoms: _562  and  _563
REMARK  233  A    between atoms: _565  and  _567
REMARK  234  A    between atoms: _567  and  _568
REMARK  235  A    between atoms: _567  and  _570
REMARK  236  A    between atoms: _570  and  _571
REMARK  237  A    between atoms: _574  and  _576
REMARK  238  A    between atoms: _576  and  _577
REMARK  239  A    between atoms: _576  and  _579
REMARK  240  A    between atoms: _579  and  _580
REMARK  241  A    between atoms: _580  and  _581
REMARK  242  A    between atoms: _584  and  _586
REMARK  243  A    between atoms: _586  and  _587
REMARK  244  A    between atoms: _586  and  _589
REMARK  245  A    between atoms: _589  and  _590
REMARK  246  A    between atoms: _590  and  _591
REMARK  247  A    between atoms: _591  and  _592
REMARK  248  A    between atoms: _601  and  _603
REMARK  249  A    between atoms: _603  and  _604
REMARK  250  A    between atoms: _603  and  _606
REMARK  251  A    between atoms: _606  and  _607
REMARK  252  A    between atoms: _612  and  _613
REMARK  253  A    between atoms: _615  and  _617
REMARK  254  A    between atoms: _617  and  _618
REMARK  255  A    between atoms: _617  and  _620
REMARK  256  A    between atoms: _620  and  _621
REMARK  257  A    between atoms: _621  and  _622
REMARK  258  A    between atoms: _625  and  _627
REMARK  259  A    between atoms: _627  and  _628
REMARK  260  A    between atoms: _627  and  _630
REMARK  261  A    between atoms: _630  and  _631
REMARK  262  A    between atoms: _634  and  _636
REMARK  263  A    between atoms: _636  and  _637
REMARK  264  A    between atoms: _636  and  _639
REMARK  265  A    between atoms: _639  and  _640
REMARK  266  A    between atoms: _646  and  _648
REMARK  267  A    between atoms: _648  and  _649
REMARK  268  A    between atoms: _648  and  _651
REMARK  269  A    between atoms: _651  and  _652
REMARK  270  A    between atoms: _652  and  _653
REMARK  271  A    between atoms: _658  and  _660
REMARK  272  A    between atoms: _660  and  _661
REMARK  273  A    between atoms: _660  and  _663
REMARK  274  A    between atoms: _666  and  _668
REMARK  275  A    between atoms: _668  and  _669
REMARK  276  A    between atoms: _668  and  _671
REMARK  277  A    between atoms: _671  and  _672
REMARK  278  A    between atoms: _678  and  _680
REMARK  279  A    between atoms: _680  and  _681
REMARK  280  A    between atoms: _680  and  _683
REMARK  281  A    between atoms: _686  and  _688
REMARK  282  A    between atoms: _688  and  _689
REMARK  283  A    between atoms: _688  and  _691
REMARK  284  A    between atoms: _691  and  _692
REMARK  285  A    between atoms: _695  and  _697
REMARK  286  A    between atoms: _697  and  _698
REMARK  287  A    between atoms: _697  and  _700
REMARK  288  A    between atoms: _700  and  _701
REMARK  289  A    between atoms: _706  and  _708
REMARK  290  A    between atoms: _708  and  _709
REMARK  291  A    between atoms: _708  and  _711
REMARK  292  A    between atoms: _711  and  _712
REMARK  293  A    between atoms: _712  and  _713
REMARK  294  A    between atoms: _713  and  _714
REMARK  295  A    between atoms: _714  and  _715
REMARK  296  A    between atoms: _719  and  _721
REMARK  297  A    between atoms: _721  and  _722
REMARK  298  A    between atoms: _724  and  _726
REMARK  299  A    between atoms: _726  and  _727
REMARK  300  A    between atoms: _726  and  _729
REMARK  301  A    between atoms: _729  and  _730
REMARK  302  A    between atoms: _733  and  _735
REMARK  303  A    between atoms: _735  and  _736
REMARK  304  A    between atoms: _735  and  _738
REMARK  305  A    between atoms: _738  and  _739
REMARK  306  A    between atoms: _739  and  _740
REMARK  307  A    between atoms: _745  and  _747
REMARK  308  A    between atoms: _747  and  _748
REMARK  309  A    between atoms: _747  and  _750
REMARK  310  A    between atoms: _750  and  _751
REMARK  311  A    between atoms: _751  and  _752
REMARK  312  A    between atoms: _755  and  _757
REMARK  313  A    between atoms: _757  and  _758
REMARK  314  A    between atoms: _757  and  _760
REMARK  315  A    between atoms: _763  and  _765
REMARK  316  A    between atoms: _765  and  _766
REMARK  317  A    between atoms: _765  and  _768
REMARK  318  A    between atoms: _768  and  _769
REMARK  319  A    between atoms: _769  and  _770
REMARK                            x       y       z     vdW  Elec       q    Type
REMARK                         _______ _______ _______ _____ _____    ______ ____
ROOT
ATOM      1  C   ALA A   4      -3.102  -8.758 156.060  0.00  0.00    +0.241 C 
ATOM      2  O   ALA A   4      -3.140  -7.868 156.916  0.00  0.00    -0.273 OA
ATOM      3  N   GLU A   5      -2.640  -8.555 154.829  0.00  0.00    -0.297 N 
ATOM      4  H   GLU A   5      -2.642  -9.343 154.150  0.00  0.00    +0.150 HD
ENDROOT
BRANCH   1   5
ATOM      5  CA  ALA A   4      -3.614 -10.160 156.388  0.00  0.00    +0.149 C 
ATOM      6  CB  ALA A   4      -2.965 -10.660 157.666  0.00  0.00    +0.031 C 
BRANCH   5   8
ATOM      7  C   ASN A   3      -4.117 -11.094 154.184  0.00  0.00    +0.241 C 
ATOM      8  N   ALA A   4      -3.444 -11.154 155.332  0.00  0.00    -0.297 N 
ATOM      9  H   ALA A   4      -2.774 -11.936 155.481  0.00  0.00    +0.150 HD
ATOM     10  O   ASN A   3      -4.902 -10.187 153.905  0.00  0.00    -0.273 OA
BRANCH   7  11
ATOM     11  CA  ASN A   3      -3.851 -12.221 153.195  0.00  0.00    +0.158 C 
BRANCH  11  13
ATOM     12  C   ASN A   2      -1.484 -11.687 152.937  0.00  0.00    +0.241 C 
ATOM     13  N   ASN A   3      -2.441 -12.572 153.207  0.00  0.00    -0.297 N 
ATOM     14  H   ASN A   3      -2.170 -13.550 153.435  0.00  0.00    +0.150 HD
ATOM     15  O   ASN A   2      -1.704 -10.502 152.657  0.00  0.00    -0.273 OA
BRANCH  12  16
ATOM     16  CA  ASN A   2      -0.063 -12.233 153.005  0.00  0.00    +0.158 C 
BRANCH  16  18
ATOM     17  C   ASP A   1       0.846 -12.172 150.697  0.00  0.00    +0.239 C 
ATOM     18  N   ASN A   2       0.402 -12.847 151.754  0.00  0.00    -0.297 N 
ATOM     19  H   ASN A   2       0.383 -13.885 151.690  0.00  0.00    +0.150 HD
ATOM     20  O   ASP A   1       0.909 -10.938 150.641  0.00  0.00    -0.274 OA
BRANCH  17  21
ATOM     21  CA  ASP A   1       1.280 -13.058 149.529  0.00  0.00    +0.156 C 
BRANCH  21  22
ATOM     22  N   ASP A   1       2.170 -14.106 150.066  0.00  0.00    -0.238 NA
ATOM     23  H   ASP A   1       1.803 -15.076 150.140  0.00  0.00    +0.142 HD
ENDBRANCH  21  22
BRANCH  21  24
ATOM     24  CB  ASP A   1       0.036 -13.725 148.918  0.00  0.00    +0.140 C 
BRANCH  24  25
ATOM     25  CG  ASP A   1      -0.512 -12.997 147.695  0.00  0.00    +0.367 C 
ATOM     26  OD2 ASP A   1      -0.095 -11.861 147.375  0.00  0.00    -0.246 OA
ATOM     27  OD1 ASP A   1      -1.392 -13.592 147.053  0.00  0.00    -0.246 OA
ENDBRANCH  24  25
ENDBRANCH  21  24
ENDBRANCH  17  21
ENDBRANCH  16  18
BRANCH  16  28
ATOM     28  CB  ASN A   2       0.895 -11.128 153.471  0.00  0.00    +0.114 C 
BRANCH  28  29
ATOM     29  CG  ASN A   2       0.696 -10.771 154.930  0.00  0.00    +0.222 C 
ATOM     30  OD1 ASN A   2      -0.152 -11.349 155.609  0.00  0.00    -0.275 OA
ATOM     31  ND2 ASN A   2       1.474  -9.813 155.418  0.00  0.00    -0.329 N 
ATOM     32 HD21 ASN A   2       1.380  -9.523 156.412  0.00  0.00    +0.145 HD
ATOM     33 HD22 ASN A   2       2.177  -9.352 154.806  0.00  0.00    +0.145 HD
ENDBRANCH  28  29
ENDBRANCH  16  28
ENDBRANCH  12  16
ENDBRANCH  11  13
BRANCH  11  34
ATOM     34  CB  ASN A   3      -4.695 -13.443 153.573  0.00  0.00    +0.114 C 
BRANCH  34  35
ATOM     35  CG  ASN A   3      -5.938 -13.585 152.717  0.00  0.00    +0.222 C 
ATOM     36  ND2 ASN A   3      -6.733 -14.617 152.995  0.00  0.00    -0.329 N 
ATOM     37 HD21 ASN A   3      -6.488 -15.269 153.767  0.00  0.00    +0.145 HD
ATOM     38 HD22 ASN A   3      -7.599 -14.771 152.440  0.00  0.00    +0.145 HD
ATOM     39  OD1 ASN A   3      -6.183 -12.781 151.810  0.00  0.00    -0.275 OA
ENDBRANCH  34  35
ENDBRANCH  11  34
ENDBRANCH   7  11
ENDBRANCH   5   8
ENDBRANCH   1   5
BRANCH   3  40
ATOM     40  CA  GLU A   5      -2.128  -7.249 154.406  0.00  0.00    +0.149 C 
BRANCH  40  41
ATOM     41  C   GLU A   5      -2.726  -6.757 153.088  0.00  0.00    +0.241 C 
ATOM     42  N   LYS A   6      -3.842  -7.347 152.664  0.00  0.00    -0.297 N 
ATOM     43  H   LYS A   6      -4.268  -8.111 153.226  0.00  0.00    +0.150 HD
ATOM     44  O   GLU A   5      -2.163  -5.854 152.452  0.00  0.00    -0.273 OA
BRANCH  42  45
ATOM     45  CA  LYS A   6      -4.470  -6.928 151.417  0.00  0.00    +0.149 C 
BRANCH  45  46
ATOM     46  C   LYS A   6      -4.855  -5.464 151.546  0.00  0.00    +0.241 C 
ATOM     47  O   LYS A   6      -5.479  -5.064 152.528  0.00  0.00    -0.273 OA
ATOM     48  N   SER A   7      -4.474  -4.669 150.550  0.00  0.00    -0.295 N 
ATOM     49  H   SER A   7      -3.940  -5.075 149.755  0.00  0.00    +0.150 HD
BRANCH  48  50
ATOM     50  CA  SER A   7      -4.784  -3.241 150.541  0.00  0.00    +0.178 C 
BRANCH  50  51
ATOM     51  C   SER A   7      -6.082  -2.936 149.766  0.00  0.00    +0.243 C 
ATOM     52  N   GLY A   8      -7.005  -3.896 149.742  0.00  0.00    -0.296 N 
ATOM     53  H   GLY A   8      -6.831  -4.795 150.236  0.00  0.00    +0.150 HD
ATOM     54  O   SER A   7      -6.245  -1.845 149.203  0.00  0.00    -0.273 OA
BRANCH  52  55
ATOM     55  CA  GLY A   8      -8.254  -3.693 149.029  0.00  0.00    +0.163 C 
BRANCH  55  56
ATOM     56  C   GLY A   8      -8.913  -4.976 148.546  0.00  0.00    +0.229 C 
ATOM     57  O   GLY A   8      -8.406  -6.087 148.779  0.00  0.00    -0.286 OA
ENDBRANCH  55  56
ENDBRANCH  52  55
ENDBRANCH  50  51
BRANCH  50  58
ATOM     58  CB  SER A   7      -3.607  -2.471 149.930  0.00  0.00    +0.166 C 
BRANCH  58  59
ATOM     59  OG  SER A   7      -4.026  -1.230 149.399  0.00  0.00    -0.380 OA
ATOM     60  H   SER A   7      -3.246  -0.758 149.013  0.00  0.00    +0.211 HD
ENDBRANCH  58  59
ENDBRANCH  50  58
ENDBRANCH  48  50
ENDBRANCH  45  46
BRANCH  45  61
ATOM     61  CB  LYS A   6      -5.721  -7.753 151.124  0.00  0.00    +0.029 C 
BRANCH  61  62
ATOM     62  CG  LYS A   6      -5.520  -9.255 151.179  0.00  0.00    +0.000 C 
BRANCH  62  63
ATOM     63  CD  LYS A   6      -6.718  -9.934 151.858  0.00  0.00    -0.024 C 
BRANCH  63  64
ATOM     64  CE  LYS A   6      -7.645 -10.635 150.854  0.00  0.00    -0.086 C 
BRANCH  64  65
ATOM     65  NZ  LYS A   6      -9.085 -10.246 151.027  0.00  0.00    +0.380 N 
ATOM     66  HZ1 LYS A   6      -9.399 -10.502 151.985  0.00  0.00    -0.089 HD
ATOM     67  HZ2 LYS A   6      -9.184  -9.220 150.891  0.00  0.00    -0.089 HD
ATOM     68  HZ3 LYS A   6      -9.665 -10.748 150.325  0.00  0.00    -0.089 HD
ENDBRANCH  64  65
ENDBRANCH  63  64
ENDBRANCH  62  63
ENDBRANCH  61  62
ENDBRANCH  45  61
ENDBRANCH  42  45
ENDBRANCH  40  41
BRANCH  40  69
ATOM     69  CB  GLU A   5      -0.609  -7.294 154.246  0.00  0.00    +0.041 C 
BRANCH  69  70
ATOM     70  CG  GLU A   5       0.134  -6.197 154.964  0.00  0.00    +0.116 C 
BRANCH  70  71
ATOM     71  CD  GLU A   5       1.018  -6.770 156.043  0.00  0.00    +0.365 C 
ATOM     72  OE2 GLU A   5       0.543  -7.681 156.755  0.00  0.00    -0.246 OA
ATOM     73  OE1 GLU A   5       2.179  -6.327 156.178  0.00  0.00    -0.246 OA
ENDBRANCH  70  71
ENDBRANCH  69  70
ENDBRANCH  40  69
ENDBRANCH   3  40
TORSDOF 32
REMARK  Name = ../refined-set-2016/3tmk/3tmk_pocket.pdb
REMARK  319 active torsions:
REMARK  status: ('A' for Active; 'I' for Inactive)
REMARK    1  A    between atoms: _1  and  _3
REMARK    2  A    between atoms: _3  and  _4
REMARK    3  A    between atoms: _3  and  _6
REMARK    4  A    between atoms: _6  and  _7
REMARK    5  A    between atoms: _10  and  _12
REMARK    6  A    between atoms: _12  and  _13
REMARK    7  A    between atoms: _12  and  _15
REMARK    8  A    between atoms: _15  and  _16
REMARK    9  A    between atoms: _16  and  _17
REMARK   10  A    between atoms: _20  and  _22
REMARK   11  A    between atoms: _22  and  _23
REMARK   12  A    between atoms: _25  and  _27
REMARK   13  A    between atoms: _27  and  _28
REMARK   14  A    between atoms: _27  and  _30
REMARK   15  A    between atoms: _30  and  _31
REMARK   16  A    between atoms: _34  and  _36
REMARK   17  A    between atoms: _36  and  _37
REMARK   18  A    between atoms: _36  and  _39
REMARK   19  A    between atoms: _39  and  _40
REMARK   20  A    between atoms: _43  and  _45
REMARK   21  A    between atoms: _45  and  _46
REMARK   22  A    between atoms: _45  and  _48
REMARK   23  A    between atoms: _48  and  _49
REMARK   24  A    between atoms: _49  and  _50
REMARK   25  A    between atoms: _50  and  _51
REMARK   26  A    between atoms: _60  and  _62
REMARK   27  A    between atoms: _62  and  _63
REMARK   28  A    between atoms: _62  and  _65
REMARK   29  A    between atoms: _65  and  _66
REMARK   30  A    between atoms: _69  and  _71
REMARK   31  A    between atoms: _71  and  _72
REMARK   32  A    between atoms: _74  and  _76
REMARK   33  A    between atoms: _76  and  _77
REMARK   34  A    between atoms: _76  and  _79
REMARK   35  A    between atoms: _79  and  _80
REMARK   36  A    between atoms: _80  and  _81
REMARK   37  A    between atoms: _81  and  _82
REMARK   38  A    between atoms: _82  and  _83
REMARK   39  A    between atoms: _87  and  _89
REMARK   40  A    between atoms: _89  and  _90
REMARK   41  A    between atoms: _89  and  _92
REMARK   42  A    between atoms: _92  and  _93
REMARK   43  A    between atoms: _96  and  _98
REMARK   44  A    between atoms: _98  and  _99
REMARK   45  A    between atoms: _98  and  _101
REMARK   46  A    between atoms: _101  and  _102
REMARK   47  A    between atoms: _105  and  _107
REMARK   48  A    between atoms: _107  and  _108
REMARK   49  A    between atoms: _107  and  _110
REMARK   50  A    between atoms: _110  and  _111
REMARK   51  A    between atoms: _111  and  _112
REMARK   52  A    between atoms: _117  and  _119
REMARK   53  A    between atoms: _119  and  _120
REMARK   54  A    between atoms: _119  and  _122
REMARK   55  A    between atoms: _124  and  _126
REMARK   56  A    between atoms: _126  and  _127
REMARK   57  A    between atoms: _126  and  _129
REMARK   58  A    between atoms: _129  and  _130
REMARK   59  A    between atoms: _135  and  _137
REMARK   60  A    between atoms: _137  and  _138
REMARK   61  A    between atoms: _137  and  _140
REMARK   62  A    between atoms: _140  and  _141
REMARK   63  A    between atoms: _144  and  _146
REMARK   64  A    between atoms: _146  and  _147
REMARK   65  A    between atoms: _146  and  _149
REMARK   66  A    between atoms: _149  and  _150
REMARK   67  A    between atoms: _150  and  _151
REMARK   68  A    between atoms: _151  and  _152
REMARK   69  A    between atoms: _152  and  _153
REMARK   70  A    between atoms: _157  and  _159
REMARK   71  A    between atoms: _159  and  _160
REMARK   72  A    between atoms: _159  and  _162
REMARK   73  A    between atoms: _162  and  _163
REMARK   74  A    between atoms: _170  and  _171
REMARK   75  A    between atoms: _176  and  _178
REMARK   76  A    between atoms: _178  and  _179
REMARK   77  A    between atoms: _178  and  _181
REMARK   78  A    between atoms: _181  and  _182
REMARK   79  A    between atoms: _182  and  _183
REMARK   80  A    between atoms: _186  and  _188
REMARK   81  A    between atoms: _188  and  _189
REMARK   82  A    between atoms: _188  and  _191
REMARK   83  A    between atoms: _191  and  _192
REMARK   84  A    between atoms: _192  and  _193
REMARK   85  A    between atoms: _193  and  _194
REMARK   86  A    between atoms: _203  and  _205
REMARK   87  A    between atoms: _205  and  _206
REMARK   88  A    between atoms: _205  and  _208
REMARK   89  A    between atoms: _208  and  _209
REMARK   90  A    between atoms: _212  and  _214
REMARK   91  A    between atoms: _214  and  _215
REMARK   92  A    between atoms: _214  and  _217
REMARK   93  A    between atoms: _217  and  _218
REMARK   94  A    between atoms: _223  and  _225
REMARK   95  A    between atoms: _225  and  _226
REMARK   96  A    between atoms: _225  and  _228
REMARK   97  A    between atoms: _228  and  _229
REMARK   98  A    between atoms: _234  and  _235
REMARK   99  A    between atoms: _237  and  _239
REMARK  100  A    between atoms: _239  and  _240
REMARK  101  A    between atoms: _239  and  _242
REMARK  102  A    between atoms: _242  and  _243
REMARK  103  A    between atoms: _246  and  _248
REMARK  104  A    between atoms: _248  and  _249
REMARK  105  A    between atoms: _248  and  _251
REMARK  106  A    between atoms: _251  and  _252
REMARK  107  A    between atoms: _255  and  _257
REMARK  108  A    between atoms: _257  and  _258
REMARK  109  A    between atoms: _257  and  _260
REMARK  110  A    between atoms: _260  and  _261
REMARK  111  A    between atoms: _264  and  _266
REMARK  112  A    between atoms: _266  and  _267
REMARK  113  A    between atoms: _266  and  _269
REMARK  114  A    between atoms: _269  and  _270
REMARK  115  A    between atoms: _275  and  _277
REMARK  116  A    between atoms: _277  and  _278
REMARK  117  A    between atoms: _277  and  _280
REMARK  118  A    between atoms: _280  and  _281
REMARK  119  A    between atoms: _284  and  _286
REMARK  120  A    between atoms: _286  and  _287
REMARK  121  A    between atoms: _286  and  _289
REMARK  122  A    between atoms: _289  and  _290
REMARK  123  A    between atoms: _296  and  _298
REMARK  124  A    between atoms: _298  and  _299
REMARK  125  A    between atoms: _298  and  _301
REMARK  126  A    between atoms: _301  and  _302
REMARK  127  A    between atoms: _304  and  _306
REMARK  128  A    between atoms: _306  and  _307
REMARK  129  A    between atoms: _310  and  _312
REMARK  130  A    between atoms: _312  and  _313
REMARK  131  A    between atoms: _312  and  _315
REMARK  132  A    between atoms: _315  and  _316
REMARK  133  A    between atoms: _321  and  _323
REMARK  134  A    between atoms: _323  and  _324
REMARK  135  A    between atoms: _323  and  _326
REMARK  136  A    between atoms: _326  and  _327
REMARK  137  A    between atoms: _327  and  _328
REMARK  138  A    between atoms: _328  and  _329
REMARK  139  A    between atoms: _338  and  _340
REMARK  140  A    between atoms: _340  and  _341
REMARK  141  A    between atoms: _340  and  _343
REMARK  142  A    between atoms: _343  and  _344
REMARK  143  A    between atoms: _347  and  _349
REMARK  144  A    between atoms: _349  and  _350
REMARK  145  A    between atoms: _349  and  _352
REMARK  146  A    between atoms: _352  and  _353
REMARK  147  A    between atoms: _353  and  _354
REMARK  148  A    between atoms: _354  and  _355
REMARK  149  A    between atoms: _364  and  _366
REMARK  150  A    between atoms: _366  and  _367
REMARK  151  A    between atoms: _366  and  _369
REMARK  152  A    between atoms: _369  and  _370
REMARK  153  A    between atoms: _375  and  _376
REMARK  154  A    between atoms: _378  and  _380
REMARK  155  A    between atoms: _380  and  _381
REMARK  156  A    between atoms: _380  and  _383
REMARK  157  A    between atoms: _386  and  _388
REMARK  158  A    between atoms: _388  and  _389
REMARK  159  A    between atoms: _388  and  _391
REMARK  160  A    between atoms: _391  and  _392
REMARK  161  A    between atoms: _397  and  _398
REMARK  162  A    between atoms: _400  and  _402
REMARK  163  A    between atoms: _402  and  _403
REMARK  164  A    between atoms: _402  and  _405
REMARK  165  A    between atoms: _405  and  _406
REMARK  166  A    between atoms: _408  and  _410
REMARK  167  A    between atoms: _410  and  _411
REMARK  168  A    between atoms: _413  and  _415
REMARK  169  A    between atoms: _415  and  _416
REMARK  170  A    between atoms: _415  and  _418
REMARK  171  A    between atoms: _421  and  _423
REMARK  172  A    between atoms: _423  and  _424
REMARK  173  A    between atoms: _427  and  _429
REMARK  174  A    between atoms: _429  and  _430
REMARK  175  A    between atoms: _429  and  _432
REMARK  176  A    between atoms: _432  and  _433
REMARK  177  A    between atoms: _438  and  _439
REMARK  178  A    between atoms: _441  and  _443
REMARK  179  A    between atoms: _443  and  _444
REMARK  180  A    between atoms: _443  and  _446
REMARK  181  A    between atoms: _446  and  _447
REMARK  182  A    between atoms: _449  and  _451
REMARK  183  A    between atoms: _451  and  _452
REMARK  184  A    between atoms: _455  and  _457
REMARK  185  A    between atoms: _457  and  _458
REMARK  186  A    between atoms: _461  and  _463
REMARK  187  A    between atoms: _463  and  _464
REMARK  188  A    between atoms: _463  and  _466
REMARK  189  A    between atoms: _466  and  _467
REMARK  190  A    between atoms: _467  and  _468
REMARK  191  A    between atoms: _468  and  _469
REMARK  192  A    between atoms: _469  and  _470
REMARK  193  A    between atoms: _474  and  _476
REMARK  194  A    between atoms: _476  and  _477
REMARK  195  A    between atoms: _476  and  _479
REMARK  196  A    between atoms: _479  and  _480
REMARK  197  A    between atoms: _483  and  _485
REMARK  198  A    between atoms: _485  and  _486
REMARK  199  A    between atoms: _485  and  _488
REMARK  200  A    between atoms: _488  and  _489
REMARK  201  A    between atoms: _492  and  _494
REMARK  202  A    between atoms: _494  and  _495
REMARK  203  A    between atoms: _494  and  _497
REMARK  204  A    between atoms: _497  and  _498
REMARK  205  A    between atoms: _501  and  _503
REMARK  206  A    between atoms: _503  and  _504
REMARK  207  A    between atoms: _503  and  _506
REMARK  208  A    between atoms: _506  and  _507
REMARK  209  A    between atoms: _512  and  _514
REMARK  210  A    between atoms: _514  and  _515
REMARK  211  A    between atoms: _514  and  _517
REMARK  212  A    between atoms: _517  and  _518
REMARK  213  A    between atoms: _523  and  _525
REMARK  214  A    between atoms: _525  and  _526
REMARK  215  A    between atoms: _529  and  _531
REMARK  216  A    between atoms: _531  and  _532
REMARK  217  A    between atoms: _531  and  _534
REMARK  218  A    between atoms: _534  and  _535
REMARK  219  A    between atoms: _535  and  _536
REMARK  220  A    between atoms: _539  and  _541
REMARK  221  A    between atoms: _541  and  _542
REMARK  222  A    between atoms: _541  and  _544
REMARK  223  A    between atoms: _544  and  _545
REMARK  224  A    between atoms: _545  and  _546
REMARK  225  A    between atoms: _546  and  _547
REMARK  226  A    between atoms: _547  and  _548
REMARK  227  A    between atoms: _552  and  _554
REMARK  228  A    between atoms: _554  and  _555
REMARK  229  A    between atoms: _554  and  _557
REMARK  230  A    between atoms: _557  and  _558
REMARK  231  A    between atoms: _560  and  _562
REMARK  232  A    between atoms: _562  and  _563
REMARK  233  A    between atoms: _565  and  _567
REMARK  234  A    between atoms: _567  and  _568
REMARK  235  A    between atoms: _567  and  _570
REMARK  236  A    between atoms: _570  and  _571
REMARK  237  A    between atoms: _574  and  _576
REMARK  238  A    between atoms: _576  and  _577
REMARK  239  A    between atoms: _576  and  _579
REMARK  240  A    between atoms: _579  and  _580
REMARK  241  A    between atoms: _580  and  _581
REMARK  242  A    between atoms: _584  and  _586
REMARK  243  A    between atoms: _586  and  _587
REMARK  244  A    between atoms: _586  and  _589
REMARK  245  A    between atoms: _589  and  _590
REMARK  246  A    between atoms: _590  and  _591
REMARK  247  A    between atoms: _591  and  _592
REMARK  248  A    between atoms: _601  and  _603
REMARK  249  A    between atoms: _603  and  _604
REMARK  250  A    between atoms: _603  and  _606
REMARK  251  A    between atoms: _606  and  _607
REMARK  252  A    between atoms: _612  and  _613
REMARK  253  A    between atoms: _615  and  _617
REMARK  254  A    between atoms: _617  and  _618
REMARK  255  A    between atoms: _617  and  _620
REMARK  256  A    between atoms: _620  and  _621
REMARK  257  A    between atoms: _621  and  _622
REMARK  258  A    between atoms: _625  and  _627
REMARK  259  A    between atoms: _627  and  _628
REMARK  260  A    between atoms: _627  and  _630
REMARK  261  A    between atoms: _630  and  _631
REMARK  262  A    between atoms: _634  and  _636
REMARK  263  A    between atoms: _636  and  _637
REMARK  264  A    between atoms: _636  and  _639
REMARK  265  A    between atoms: _639  and  _640
REMARK  266  A    between atoms: _646  and  _648
REMARK  267  A    between atoms: _648  and  _649
REMARK  268  A    between atoms: _648  and  _651
REMARK  269  A    between atoms: _651  and  _652
REMARK  270  A    between atoms: _652  and  _653
REMARK  271  A    between atoms: _658  and  _660
REMARK  272  A    between atoms: _660  and  _661
REMARK  273  A    between atoms: _660  and  _663
REMARK  274  A    between atoms: _666  and  _668
REMARK  275  A    between atoms: _668  and  _669
REMARK  276  A    between atoms: _668  and  _671
REMARK  277  A    between atoms: _671  and  _672
REMARK  278  A    between atoms: _678  and  _680
REMARK  279  A    between atoms: _680  and  _681
REMARK  280  A    between atoms: _680  and  _683
REMARK  281  A    between atoms: _686  and  _688
REMARK  282  A    between atoms: _688  and  _689
REMARK  283  A    between atoms: _688  and  _691
REMARK  284  A    between atoms: _691  and  _692
REMARK  285  A    between atoms: _695  and  _697
REMARK  286  A    between atoms: _697  and  _698
REMARK  287  A    between atoms: _697  and  _700
REMARK  288  A    between atoms: _700  and  _701
REMARK  289  A    between atoms: _706  and  _708
REMARK  290  A    between atoms: _708  and  _709
REMARK  291  A    between atoms: _708  and  _711
REMARK  292  A    between atoms: _711  and  _712
REMARK  293  A    between atoms: _712  and  _713
REMARK  294  A    between atoms: _713  and  _714
REMARK  295  A    between atoms: _714  and  _715
REMARK  296  A    between atoms: _719  and  _721
REMARK  297  A    between atoms: _721  and  _722
REMARK  298  A    between atoms: _724  and  _726
REMARK  299  A    between atoms: _726  and  _727
REMARK  300  A    between atoms: _726  and  _729
REMARK  301  A    between atoms: _729  and  _730
REMARK  302  A    between atoms: _733  and  _735
REMARK  303  A    between atoms: _735  and  _736
REMARK  304  A    between atoms: _735  and  _738
REMARK  305  A    between atoms: _738  and  _739
REMARK  306  A    between atoms: _739  and  _740
REMARK  307  A    between atoms: _745  and  _747
REMARK  308  A    between atoms: _747  and  _748
REMARK  309  A    between atoms: _747  and  _750
REMARK  310  A    between atoms: _750  and  _751
REMARK  311  A    between atoms: _751  and  _752
REMARK  312  A    between atoms: _755  and  _757
REMARK  313  A    between atoms: _757  and  _758
REMARK  314  A    between atoms: _757  and  _760
REMARK  315  A    between atoms: _763  and  _765
REMARK  316  A    between atoms: _765  and  _766
REMARK  317  A    between atoms: _765  and  _768
REMARK  318  A    between atoms: _768  and  _769
REMARK  319  A    between atoms: _769  and  _770
REMARK                            x       y       z     vdW  Elec       q    Type
REMARK                         _______ _______ _______ _____ _____    ______ ____
ROOT
ATOM      1  C   ARG A   3      -2.028  -9.321 139.195  0.00  0.00    +0.241 C 
ATOM      2  N   TYR A   4      -1.101  -8.617 139.846  0.00  0.00    -0.297 N 
ATOM      3  H   TYR A   4      -1.263  -7.603 140.014  0.00  0.00    +0.150 HD
ATOM      4  O   ARG A   3      -1.914 -10.526 138.971  0.00  0.00    -0.273 OA
ENDROOT
BRANCH   2   5
ATOM      5  CA  TYR A   4       0.143  -9.230 140.334  0.00  0.00    +0.153 C 
BRANCH   5   6
ATOM      6  C   TYR A   4       0.072  -9.974 141.680  0.00  0.00    +0.241 C 
ATOM      7  N   GLU A   5      -1.021  -9.774 142.417  0.00  0.00    -0.297 N 
ATOM      8  H   GLU A   5      -1.770  -9.154 142.047  0.00  0.00    +0.150 HD
ATOM      9  O   TYR A   4       0.994 -10.721 142.034  0.00  0.00    -0.273 OA
BRANCH   7  10
ATOM     10  CA  GLU A   5      -1.204 -10.398 143.731  0.00  0.00    +0.149 C 
BRANCH  10  11
ATOM     11  C   GLU A   5      -1.500 -11.881 143.712  0.00  0.00    +0.241 C 
ATOM     12  O   GLU A   5      -2.622 -12.309 143.988  0.00  0.00    -0.273 OA
ATOM     13  N   THR A   6      -0.473 -12.653 143.374  0.00  0.00    -0.296 N 
ATOM     14  H   THR A   6       0.425 -12.197 143.113  0.00  0.00    +0.150 HD
BRANCH  13  15
ATOM     15  CA  THR A   6      -0.545 -14.107 143.352  0.00  0.00    +0.164 C 
BRANCH  15  16
ATOM     16  CB  THR A   6      -0.453 -14.672 141.900  0.00  0.00    +0.136 C 
ATOM     17  CG2 THR A   6      -0.473 -13.532 140.886  0.00  0.00    +0.034 C 
BRANCH  16  18
ATOM     18  OG1 THR A   6       0.759 -15.425 141.738  0.00  0.00    -0.382 OA
ATOM     19  HG1 THR A   6       1.537 -14.837 141.908  0.00  0.00    +0.210 HD
ENDBRANCH  16  18
ENDBRANCH  15  16
BRANCH  15  20
ATOM     20  C   THR A   6       0.682 -14.526 144.156  0.00  0.00    +0.229 C 
ATOM     21  O   THR A   6       1.678 -13.800 144.200  0.00  0.00    -0.286 OA
ENDBRANCH  15  20
ENDBRANCH  13  15
ENDBRANCH  10  11
BRANCH  10  22
ATOM     22  CB  GLU A   5      -2.298  -9.681 144.518  0.00  0.00    +0.041 C 
BRANCH  22  23
ATOM     23  CG  GLU A   5      -2.220  -8.193 144.374  0.00  0.00    +0.116 C 
BRANCH  23  24
ATOM     24  CD  GLU A   5      -2.804  -7.469 145.548  0.00  0.00    +0.365 C 
ATOM     25  OE2 GLU A   5      -2.389  -7.756 146.690  0.00  0.00    -0.246 OA
ATOM     26  OE1 GLU A   5      -3.678  -6.609 145.325  0.00  0.00    -0.246 OA
ENDBRANCH  23  24
ENDBRANCH  22  23
ENDBRANCH  10  22
ENDBRANCH   7  10
ENDBRANCH   5   6
BRANCH   5  27
ATOM     27  CB  TYR A   4       1.221  -8.152 140.418  0.00  0.00    +0.055 C 
BRANCH  27  28
ATOM     28  CG  TYR A   4       1.557  -7.542 139.086  0.00  0.00    -0.020 A 
ATOM     29  CD2 TYR A   4       2.137  -6.280 139.001  0.00  0.00    -0.001 A 
ATOM     30  CE2 TYR A   4       2.519  -5.748 137.776  0.00  0.00    +0.036 A 
ATOM     31  CZ  TYR A   4       2.317  -6.490 136.623  0.00  0.00    +0.134 A 
ATOM     32  CE1 TYR A   4       1.726  -7.734 136.683  0.00  0.00    +0.036 A 
ATOM     33  CD1 TYR A   4       1.352  -8.253 137.908  0.00  0.00    -0.001 A 
BRANCH  31  34
ATOM     34  OH  TYR A   4       2.791  -6.039 135.419  0.00  0.00    -0.506 OA
ATOM     35  HH  TYR A   4       3.775  -5.941 135.469  0.00  0.00    +0.292 HD
ENDBRANCH  31  34
ENDBRANCH  27  28
ENDBRANCH   5  27
ENDBRANCH   2   5
BRANCH   1  36
ATOM     36  CA  ARG A   3      -3.263  -8.555 138.698  0.00  0.00    +0.149 C 
BRANCH  36  39
ATOM     37  C   GLU A   2      -4.245  -7.899 140.897  0.00  0.00    +0.241 C 
ATOM     38  O   GLU A   2      -3.864  -8.909 141.493  0.00  0.00    -0.273 OA
ATOM     39  N   ARG A   3      -3.992  -7.665 139.612  0.00  0.00    -0.297 N 
ATOM     40  H   ARG A   3      -4.343  -6.769 139.218  0.00  0.00    +0.150 HD
BRANCH  37  41
ATOM     41  CA  GLU A   2      -5.060  -6.797 141.595  0.00  0.00    +0.149 C 
BRANCH  41  43
ATOM     42  C   ASP A   1      -6.359  -8.095 143.222  0.00  0.00    +0.239 C 
ATOM     43  N   GLU A   2      -5.563  -7.074 142.929  0.00  0.00    -0.297 N 
ATOM     44  H   GLU A   2      -5.283  -6.435 143.700  0.00  0.00    +0.150 HD
ATOM     45  O   ASP A   1      -6.775  -8.896 142.372  0.00  0.00    -0.274 OA
BRANCH  42  46
ATOM     46  CA  ASP A   1      -6.781  -8.162 144.711  0.00  0.00    +0.156 C 
BRANCH  46  47
ATOM     47  N   ASP A   1      -8.234  -8.074 144.877  0.00  0.00    -0.238 NA
ATOM     48  H   ASP A   1      -8.631  -7.176 145.219  0.00  0.00    +0.142 HD
ENDBRANCH  46  47
BRANCH  46  49
ATOM     49  CB  ASP A   1      -6.217  -9.395 145.506  0.00  0.00    +0.140 C 
BRANCH  49  50
ATOM     50  CG  ASP A   1      -5.769 -10.574 144.625  0.00  0.00    +0.367 C 
ATOM     51  OD2 ASP A   1      -6.063 -11.731 145.015  0.00  0.00    -0.246 OA
ATOM     52  OD1 ASP A   1      -5.115 -10.368 143.579  0.00  0.00    -0.246 OA
ENDBRANCH  49  50
ENDBRANCH  46  49
ENDBRANCH  42  46
ENDBRANCH  41  43
BRANCH  41  53
ATOM     53  CB  GLU A   2      -4.253  -5.498 141.644  0.00  0.00    +0.041 C 
BRANCH  53  54
ATOM     54  CG  GLU A   2      -4.965  -4.382 142.401  0.00  0.00    +0.116 C 
BRANCH  54  55
ATOM     55  CD  GLU A   2      -4.142  -3.103 142.461  0.00  0.00    +0.365 C 
ATOM     56  OE2 GLU A   2      -2.896  -3.198 142.638  0.00  0.00    -0.246 OA
ATOM     57  OE1 GLU A   2      -4.740  -2.004 142.328  0.00  0.00    -0.246 OA
ENDBRANCH  54  55
ENDBRANCH  53  54
ENDBRANCH  41  53
ENDBRANCH  37  41
ENDBRANCH  36  39
BRANCH  36  58
ATOM     58  CB  ARG A   3      -2.861  -7.735 137.487  0.00  0.00    +0.033 C 
BRANCH  58  59
ATOM     59  CG  ARG A   3      -2.636  -8.507 136.215  0.00  0.00    +0.045 C 
BRANCH  59  60
ATOM     60  CD  ARG A   3      -2.501  -7.483 135.102  0.00  0.00    +0.174 C 
BRANCH  60  61
ATOM     61  NE  ARG A   3      -2.646  -8.047 133.771  0.00  0.00    -0.265 N 
ATOM     62  HE  ARG A   3      -1.980  -8.791 133.481  0.00  0.00    +0.259 HD
ATOM     63  CZ  ARG A   3      -3.574  -7.671 132.905  0.00  0.00    +0.342 C 
ATOM     64  NH2 ARG A   3      -4.449  -6.731 133.223  0.00  0.00    -0.292 N 
ATOM     65 HH21 ARG A   3      -4.411  -6.281 134.160  0.00  0.00    +0.255 HD
ATOM     66 HH22 ARG A   3      -5.175  -6.442 132.536  0.00  0.00    +0.255 HD
ATOM     67  NH1 ARG A   3      -3.591  -8.209 131.703  0.00  0.00    -0.292 N 
ATOM     68 HH11 ARG A   3      -2.880  -8.922 131.442  0.00  0.00    +0.255 HD
ATOM     69 HH12 ARG A   3      -4.315  -7.921 131.015  0.00  0.00    +0.255 HD
ENDBRANCH  60  61
ENDBRANCH  59  60
ENDBRANCH  58  59
ENDBRANCH  36  58
ENDBRANCH   1  36
TORSDOF 29
REMARK  Name = ../refined-set-2016/3tmk/3tmk_pocket.pdb
REMARK  319 active torsions:
REMARK  status: ('A' for Active; 'I' for Inactive)
REMARK    1  A    between atoms: _1  and  _3
REMARK    2  A    between atoms: _3  and  _4
REMARK    3  A    between atoms: _3  and  _6
REMARK    4  A    between atoms: _6  and  _7
REMARK    5  A    between atoms: _10  and  _12
REMARK    6  A    between atoms: _12  and  _13
REMARK    7  A    between atoms: _12  and  _15
REMARK    8  A    between atoms: _15  and  _16
REMARK    9  A    between atoms: _16  and  _17
REMARK   10  A    between atoms: _20  and  _22
REMARK   11  A    between atoms: _22  and  _23
REMARK   12  A    between atoms: _25  and  _27
REMARK   13  A    between atoms: _27  and  _28
REMARK   14  A    between atoms: _27  and  _30
REMARK   15  A    between atoms: _30  and  _31
REMARK   16  A    between atoms: _34  and  _36
REMARK   17  A    between atoms: _36  and  _37
REMARK   18  A    between atoms: _36  and  _39
REMARK   19  A    between atoms: _39  and  _40
REMARK   20  A    between atoms: _43  and  _45
REMARK   21  A    between atoms: _45  and  _46
REMARK   22  A    between atoms: _45  and  _48
REMARK   23  A    between atoms: _48  and  _49
REMARK   24  A    between atoms: _49  and  _50
REMARK   25  A    between atoms: _50  and  _51
REMARK   26  A    between atoms: _60  and  _62
REMARK   27  A    between atoms: _62  and  _63
REMARK   28  A    between atoms: _62  and  _65
REMARK   29  A    between atoms: _65  and  _66
REMARK   30  A    between atoms: _69  and  _71
REMARK   31  A    between atoms: _71  and  _72
REMARK   32  A    between atoms: _74  and  _76
REMARK   33  A    between atoms: _76  and  _77
REMARK   34  A    between atoms: _76  and  _79
REMARK   35  A    between atoms: _79  and  _80
REMARK   36  A    between atoms: _80  and  _81
REMARK   37  A    between atoms: _81  and  _82
REMARK   38  A    between atoms: _82  and  _83
REMARK   39  A    between atoms: _87  and  _89
REMARK   40  A    between atoms: _89  and  _90
REMARK   41  A    between atoms: _89  and  _92
REMARK   42  A    between atoms: _92  and  _93
REMARK   43  A    between atoms: _96  and  _98
REMARK   44  A    between atoms: _98  and  _99
REMARK   45  A    between atoms: _98  and  _101
REMARK   46  A    between atoms: _101  and  _102
REMARK   47  A    between atoms: _105  and  _107
REMARK   48  A    between atoms: _107  and  _108
REMARK   49  A    between atoms: _107  and  _110
REMARK   50  A    between atoms: _110  and  _111
REMARK   51  A    between atoms: _111  and  _112
REMARK   52  A    between atoms: _117  and  _119
REMARK   53  A    between atoms: _119  and  _120
REMARK   54  A    between atoms: _119  and  _122
REMARK   55  A    between atoms: _124  and  _126
REMARK   56  A    between atoms: _126  and  _127
REMARK   57  A    between atoms: _126  and  _129
REMARK   58  A    between atoms: _129  and  _130
REMARK   59  A    between atoms: _135  and  _137
REMARK   60  A    between atoms: _137  and  _138
REMARK   61  A    between atoms: _137  and  _140
REMARK   62  A    between atoms: _140  and  _141
REMARK   63  A    between atoms: _144  and  _146
REMARK   64  A    between atoms: _146  and  _147
REMARK   65  A    between atoms: _146  and  _149
REMARK   66  A    between atoms: _149  and  _150
REMARK   67  A    between atoms: _150  and  _151
REMARK   68  A    between atoms: _151  and  _152
REMARK   69  A    between atoms: _152  and  _153
REMARK   70  A    between atoms: _157  and  _159
REMARK   71  A    between atoms: _159  and  _160
REMARK   72  A    between atoms: _159  and  _162
REMARK   73  A    between atoms: _162  and  _163
REMARK   74  A    between atoms: _170  and  _171
REMARK   75  A    between atoms: _176  and  _178
REMARK   76  A    between atoms: _178  and  _179
REMARK   77  A    between atoms: _178  and  _181
REMARK   78  A    between atoms: _181  and  _182
REMARK   79  A    between atoms: _182  and  _183
REMARK   80  A    between atoms: _186  and  _188
REMARK   81  A    between atoms: _188  and  _189
REMARK   82  A    between atoms: _188  and  _191
REMARK   83  A    between atoms: _191  and  _192
REMARK   84  A    between atoms: _192  and  _193
REMARK   85  A    between atoms: _193  and  _194
REMARK   86  A    between atoms: _203  and  _205
REMARK   87  A    between atoms: _205  and  _206
REMARK   88  A    between atoms: _205  and  _208
REMARK   89  A    between atoms: _208  and  _209
REMARK   90  A    between atoms: _212  and  _214
REMARK   91  A    between atoms: _214  and  _215
REMARK   92  A    between atoms: _214  and  _217
REMARK   93  A    between atoms: _217  and  _218
REMARK   94  A    between atoms: _223  and  _225
REMARK   95  A    between atoms: _225  and  _226
REMARK   96  A    between atoms: _225  and  _228
REMARK   97  A    between atoms: _228  and  _229
REMARK   98  A    between atoms: _234  and  _235
REMARK   99  A    between atoms: _237  and  _239
REMARK  100  A    between atoms: _239  and  _240
REMARK  101  A    between atoms: _239  and  _242
REMARK  102  A    between atoms: _242  and  _243
REMARK  103  A    between atoms: _246  and  _248
REMARK  104  A    between atoms: _248  and  _249
REMARK  105  A    between atoms: _248  and  _251
REMARK  106  A    between atoms: _251  and  _252
REMARK  107  A    between atoms: _255  and  _257
REMARK  108  A    between atoms: _257  and  _258
REMARK  109  A    between atoms: _257  and  _260
REMARK  110  A    between atoms: _260  and  _261
REMARK  111  A    between atoms: _264  and  _266
REMARK  112  A    between atoms: _266  and  _267
REMARK  113  A    between atoms: _266  and  _269
REMARK  114  A    between atoms: _269  and  _270
REMARK  115  A    between atoms: _275  and  _277
REMARK  116  A    between atoms: _277  and  _278
REMARK  117  A    between atoms: _277  and  _280
REMARK  118  A    between atoms: _280  and  _281
REMARK  119  A    between atoms: _284  and  _286
REMARK  120  A    between atoms: _286  and  _287
REMARK  121  A    between atoms: _286  and  _289
REMARK  122  A    between atoms: _289  and  _290
REMARK  123  A    between atoms: _296  and  _298
REMARK  124  A    between atoms: _298  and  _299
REMARK  125  A    between atoms: _298  and  _301
REMARK  126  A    between atoms: _301  and  _302
REMARK  127  A    between atoms: _304  and  _306
REMARK  128  A    between atoms: _306  and  _307
REMARK  129  A    between atoms: _310  and  _312
REMARK  130  A    between atoms: _312  and  _313
REMARK  131  A    between atoms: _312  and  _315
REMARK  132  A    between atoms: _315  and  _316
REMARK  133  A    between atoms: _321  and  _323
REMARK  134  A    between atoms: _323  and  _324
REMARK  135  A    between atoms: _323  and  _326
REMARK  136  A    between atoms: _326  and  _327
REMARK  137  A    between atoms: _327  and  _328
REMARK  138  A    between atoms: _328  and  _329
REMARK  139  A    between atoms: _338  and  _340
REMARK  140  A    between atoms: _340  and  _341
REMARK  141  A    between atoms: _340  and  _343
REMARK  142  A    between atoms: _343  and  _344
REMARK  143  A    between atoms: _347  and  _349
REMARK  144  A    between atoms: _349  and  _350
REMARK  145  A    between atoms: _349  and  _352
REMARK  146  A    between atoms: _352  and  _353
REMARK  147  A    between atoms: _353  and  _354
REMARK  148  A    between atoms: _354  and  _355
REMARK  149  A    between atoms: _364  and  _366
REMARK  150  A    between atoms: _366  and  _367
REMARK  151  A    between atoms: _366  and  _369
REMARK  152  A    between atoms: _369  and  _370
REMARK  153  A    between atoms: _375  and  _376
REMARK  154  A    between atoms: _378  and  _380
REMARK  155  A    between atoms: _380  and  _381
REMARK  156  A    between atoms: _380  and  _383
REMARK  157  A    between atoms: _386  and  _388
REMARK  158  A    between atoms: _388  and  _389
REMARK  159  A    between atoms: _388  and  _391
REMARK  160  A    between atoms: _391  and  _392
REMARK  161  A    between atoms: _397  and  _398
REMARK  162  A    between atoms: _400  and  _402
REMARK  163  A    between atoms: _402  and  _403
REMARK  164  A    between atoms: _402  and  _405
REMARK  165  A    between atoms: _405  and  _406
REMARK  166  A    between atoms: _408  and  _410
REMARK  167  A    between atoms: _410  and  _411
REMARK  168  A    between atoms: _413  and  _415
REMARK  169  A    between atoms: _415  and  _416
REMARK  170  A    between atoms: _415  and  _418
REMARK  171  A    between atoms: _421  and  _423
REMARK  172  A    between atoms: _423  and  _424
REMARK  173  A    between atoms: _427  and  _429
REMARK  174  A    between atoms: _429  and  _430
REMARK  175  A    between atoms: _429  and  _432
REMARK  176  A    between atoms: _432  and  _433
REMARK  177  A    between atoms: _438  and  _439
REMARK  178  A    between atoms: _441  and  _443
REMARK  179  A    between atoms: _443  and  _444
REMARK  180  A    between atoms: _443  and  _446
REMARK  181  A    between atoms: _446  and  _447
REMARK  182  A    between atoms: _449  and  _451
REMARK  183  A    between atoms: _451  and  _452
REMARK  184  A    between atoms: _455  and  _457
REMARK  185  A    between atoms: _457  and  _458
REMARK  186  A    between atoms: _461  and  _463
REMARK  187  A    between atoms: _463  and  _464
REMARK  188  A    between atoms: _463  and  _466
REMARK  189  A    between atoms: _466  and  _467
REMARK  190  A    between atoms: _467  and  _468
REMARK  191  A    between atoms: _468  and  _469
REMARK  192  A    between atoms: _469  and  _470
REMARK  193  A    between atoms: _474  and  _476
REMARK  194  A    between atoms: _476  and  _477
REMARK  195  A    between atoms: _476  and  _479
REMARK  196  A    between atoms: _479  and  _480
REMARK  197  A    between atoms: _483  and  _485
REMARK  198  A    between atoms: _485  and  _486
REMARK  199  A    between atoms: _485  and  _488
REMARK  200  A    between atoms: _488  and  _489
REMARK  201  A    between atoms: _492  and  _494
REMARK  202  A    between atoms: _494  and  _495
REMARK  203  A    between atoms: _494  and  _497
REMARK  204  A    between atoms: _497  and  _498
REMARK  205  A    between atoms: _501  and  _503
REMARK  206  A    between atoms: _503  and  _504
REMARK  207  A    between atoms: _503  and  _506
REMARK  208  A    between atoms: _506  and  _507
REMARK  209  A    between atoms: _512  and  _514
REMARK  210  A    between atoms: _514  and  _515
REMARK  211  A    between atoms: _514  and  _517
REMARK  212  A    between atoms: _517  and  _518
REMARK  213  A    between atoms: _523  and  _525
REMARK  214  A    between atoms: _525  and  _526
REMARK  215  A    between atoms: _529  and  _531
REMARK  216  A    between atoms: _531  and  _532
REMARK  217  A    between atoms: _531  and  _534
REMARK  218  A    between atoms: _534  and  _535
REMARK  219  A    between atoms: _535  and  _536
REMARK  220  A    between atoms: _539  and  _541
REMARK  221  A    between atoms: _541  and  _542
REMARK  222  A    between atoms: _541  and  _544
REMARK  223  A    between atoms: _544  and  _545
REMARK  224  A    between atoms: _545  and  _546
REMARK  225  A    between atoms: _546  and  _547
REMARK  226  A    between atoms: _547  and  _548
REMARK  227  A    between atoms: _552  and  _554
REMARK  228  A    between atoms: _554  and  _555
REMARK  229  A    between atoms: _554  and  _557
REMARK  230  A    between atoms: _557  and  _558
REMARK  231  A    between atoms: _560  and  _562
REMARK  232  A    between atoms: _562  and  _563
REMARK  233  A    between atoms: _565  and  _567
REMARK  234  A    between atoms: _567  and  _568
REMARK  235  A    between atoms: _567  and  _570
REMARK  236  A    between atoms: _570  and  _571
REMARK  237  A    between atoms: _574  and  _576
REMARK  238  A    between atoms: _576  and  _577
REMARK  239  A    between atoms: _576  and  _579
REMARK  240  A    between atoms: _579  and  _580
REMARK  241  A    between atoms: _580  and  _581
REMARK  242  A    between atoms: _584  and  _586
REMARK  243  A    between atoms: _586  and  _587
REMARK  244  A    between atoms: _586  and  _589
REMARK  245  A    between atoms: _589  and  _590
REMARK  246  A    between atoms: _590  and  _591
REMARK  247  A    between atoms: _591  and  _592
REMARK  248  A    between atoms: _601  and  _603
REMARK  249  A    between atoms: _603  and  _604
REMARK  250  A    between atoms: _603  and  _606
REMARK  251  A    between atoms: _606  and  _607
REMARK  252  A    between atoms: _612  and  _613
REMARK  253  A    between atoms: _615  and  _617
REMARK  254  A    between atoms: _617  and  _618
REMARK  255  A    between atoms: _617  and  _620
REMARK  256  A    between atoms: _620  and  _621
REMARK  257  A    between atoms: _621  and  _622
REMARK  258  A    between atoms: _625  and  _627
REMARK  259  A    between atoms: _627  and  _628
REMARK  260  A    between atoms: _627  and  _630
REMARK  261  A    between atoms: _630  and  _631
REMARK  262  A    between atoms: _634  and  _636
REMARK  263  A    between atoms: _636  and  _637
REMARK  264  A    between atoms: _636  and  _639
REMARK  265  A    between atoms: _639  and  _640
REMARK  266  A    between atoms: _646  and  _648
REMARK  267  A    between atoms: _648  and  _649
REMARK  268  A    between atoms: _648  and  _651
REMARK  269  A    between atoms: _651  and  _652
REMARK  270  A    between atoms: _652  and  _653
REMARK  271  A    between atoms: _658  and  _660
REMARK  272  A    between atoms: _660  and  _661
REMARK  273  A    between atoms: _660  and  _663
REMARK  274  A    between atoms: _666  and  _668
REMARK  275  A    between atoms: _668  and  _669
REMARK  276  A    between atoms: _668  and  _671
REMARK  277  A    between atoms: _671  and  _672
REMARK  278  A    between atoms: _678  and  _680
REMARK  279  A    between atoms: _680  and  _681
REMARK  280  A    between atoms: _680  and  _683
REMARK  281  A    between atoms: _686  and  _688
REMARK  282  A    between atoms: _688  and  _689
REMARK  283  A    between atoms: _688  and  _691
REMARK  284  A    between atoms: _691  and  _692
REMARK  285  A    between atoms: _695  and  _697
REMARK  286  A    between atoms: _697  and  _698
REMARK  287  A    between atoms: _697  and  _700
REMARK  288  A    between atoms: _700  and  _701
REMARK  289  A    between atoms: _706  and  _708
REMARK  290  A    between atoms: _708  and  _709
REMARK  291  A    between atoms: _708  and  _711
REMARK  292  A    between atoms: _711  and  _712
REMARK  293  A    between atoms: _712  and  _713
REMARK  294  A    between atoms: _713  and  _714
REMARK  295  A    between atoms: _714  and  _715
REMARK  296  A    between atoms: _719  and  _721
REMARK  297  A    between atoms: _721  and  _722
REMARK  298  A    between atoms: _724  and  _726
REMARK  299  A    between atoms: _726  and  _727
REMARK  300  A    between atoms: _726  and  _729
REMARK  301  A    between atoms: _729  and  _730
REMARK  302  A    between atoms: _733  and  _735
REMARK  303  A    between atoms: _735  and  _736
REMARK  304  A    between atoms: _735  and  _738
REMARK  305  A    between atoms: _738  and  _739
REMARK  306  A    between atoms: _739  and  _740
REMARK  307  A    between atoms: _745  and  _747
REMARK  308  A    between atoms: _747  and  _748
REMARK  309  A    between atoms: _747  and  _750
REMARK  310  A    between atoms: _750  and  _751
REMARK  311  A    between atoms: _751  and  _752
REMARK  312  A    between atoms: _755  and  _757
REMARK  313  A    between atoms: _757  and  _758
REMARK  314  A    between atoms: _757  and  _760
REMARK  315  A    between atoms: _763  and  _765
REMARK  316  A    between atoms: _765  and  _766
REMARK  317  A    between atoms: _765  and  _768
REMARK  318  A    between atoms: _768  and  _769
REMARK  319  A    between atoms: _769  and  _770
REMARK                            x       y       z     vdW  Elec       q    Type
REMARK                         _______ _______ _______ _____ _____    ______ ____
ROOT
ATOM      1  C   PHE A   1       5.054 -13.459 141.966  0.00  0.00    +0.239 C 
ATOM      2  N   GLN A   2       4.379 -13.209 143.088  0.00  0.00    -0.298 N 
ATOM      3  H   GLN A   2       3.420 -13.597 143.195  0.00  0.00    +0.150 HD
ATOM      4  O   PHE A   1       6.183 -13.016 141.737  0.00  0.00    -0.274 OA
ENDROOT
BRANCH   1   5
ATOM      5  CA  PHE A   1       4.333 -14.314 140.934  0.00  0.00    +0.149 C 
BRANCH   5   6
ATOM      6  N   PHE A   1       3.670 -15.460 141.541  0.00  0.00    -0.238 NA
ATOM      7  H   PHE A   1       2.632 -15.488 141.593  0.00  0.00    +0.142 HD
ENDBRANCH   5   6
BRANCH   5   8
ATOM      8  CB  PHE A   1       3.335 -13.430 140.191  0.00  0.00    +0.053 C 
BRANCH   8   9
ATOM      9  CG  PHE A   1       3.982 -12.277 139.462  0.00  0.00    -0.020 A 
ATOM     10  CD2 PHE A   1       3.558 -10.971 139.674  0.00  0.00    -0.004 A 
ATOM     11  CE2 PHE A   1       4.154  -9.919 138.991  0.00  0.00    -0.000 A 
ATOM     12  CZ  PHE A   1       5.182 -10.173 138.087  0.00  0.00    -0.000 A 
ATOM     13  CE1 PHE A   1       5.608 -11.474 137.873  0.00  0.00    -0.000 A 
ATOM     14  CD1 PHE A   1       5.014 -12.511 138.554  0.00  0.00    -0.004 A 
ENDBRANCH   8   9
ENDBRANCH   5   8
ENDBRANCH   1   5
BRANCH   2  15
ATOM     15  CA  GLN A   2       4.943 -12.406 144.173  0.00  0.00    +0.137 C 
BRANCH  15  16
ATOM     16  C   GLN A   2       6.251 -13.053 144.627  0.00  0.00    +0.227 C 
ATOM     17  O   GLN A   2       7.204 -12.362 145.015  0.00  0.00    -0.286 OA
ENDBRANCH  15  16
BRANCH  15  18
ATOM     18  CB  GLN A   2       3.955 -12.326 145.347  0.00  0.00    +0.037 C 
BRANCH  18  19
ATOM     19  CG  GLN A   2       2.821 -11.310 145.159  0.00  0.00    +0.087 C 
BRANCH  19  20
ATOM     20  CD  GLN A   2       3.297  -9.863 145.053  0.00  0.00    +0.219 C 
ATOM     21  OE1 GLN A   2       4.077  -9.385 145.873  0.00  0.00    -0.275 OA
ATOM     22  NE2 GLN A   2       2.811  -9.156 144.030  0.00  0.00    -0.329 N 
ATOM     23 HE21 GLN A   2       3.091  -8.162 143.905  0.00  0.00    +0.145 HD
ATOM     24 HE22 GLN A   2       2.153  -9.599 143.358  0.00  0.00    +0.145 HD
ENDBRANCH  19  20
ENDBRANCH  18  19
ENDBRANCH  15  18
ENDBRANCH   2  15
TORSDOF 9
REMARK  Name = ../refined-set-2016/3tmk/3tmk_pocket.pdb
REMARK  319 active torsions:
REMARK  status: ('A' for Active; 'I' for Inactive)
REMARK    1  A    between atoms: _1  and  _3
REMARK    2  A    between atoms: _3  and  _4
REMARK    3  A    between atoms: _3  and  _6
REMARK    4  A    between atoms: _6  and  _7
REMARK    5  A    between atoms: _10  and  _12
REMARK    6  A    between atoms: _12  and  _13
REMARK    7  A    between atoms: _12  and  _15
REMARK    8  A    between atoms: _15  and  _16
REMARK    9  A    between atoms: _16  and  _17
REMARK   10  A    between atoms: _20  and  _22
REMARK   11  A    between atoms: _22  and  _23
REMARK   12  A    between atoms: _25  and  _27
REMARK   13  A    between atoms: _27  and  _28
REMARK   14  A    between atoms: _27  and  _30
REMARK   15  A    between atoms: _30  and  _31
REMARK   16  A    between atoms: _34  and  _36
REMARK   17  A    between atoms: _36  and  _37
REMARK   18  A    between atoms: _36  and  _39
REMARK   19  A    between atoms: _39  and  _40
REMARK   20  A    between atoms: _43  and  _45
REMARK   21  A    between atoms: _45  and  _46
REMARK   22  A    between atoms: _45  and  _48
REMARK   23  A    between atoms: _48  and  _49
REMARK   24  A    between atoms: _49  and  _50
REMARK   25  A    between atoms: _50  and  _51
REMARK   26  A    between atoms: _60  and  _62
REMARK   27  A    between atoms: _62  and  _63
REMARK   28  A    between atoms: _62  and  _65
REMARK   29  A    between atoms: _65  and  _66
REMARK   30  A    between atoms: _69  and  _71
REMARK   31  A    between atoms: _71  and  _72
REMARK   32  A    between atoms: _74  and  _76
REMARK   33  A    between atoms: _76  and  _77
REMARK   34  A    between atoms: _76  and  _79
REMARK   35  A    between atoms: _79  and  _80
REMARK   36  A    between atoms: _80  and  _81
REMARK   37  A    between atoms: _81  and  _82
REMARK   38  A    between atoms: _82  and  _83
REMARK   39  A    between atoms: _87  and  _89
REMARK   40  A    between atoms: _89  and  _90
REMARK   41  A    between atoms: _89  and  _92
REMARK   42  A    between atoms: _92  and  _93
REMARK   43  A    between atoms: _96  and  _98
REMARK   44  A    between atoms: _98  and  _99
REMARK   45  A    between atoms: _98  and  _101
REMARK   46  A    between atoms: _101  and  _102
REMARK   47  A    between atoms: _105  and  _107
REMARK   48  A    between atoms: _107  and  _108
REMARK   49  A    between atoms: _107  and  _110
REMARK   50  A    between atoms: _110  and  _111
REMARK   51  A    between atoms: _111  and  _112
REMARK   52  A    between atoms: _117  and  _119
REMARK   53  A    between atoms: _119  and  _120
REMARK   54  A    between atoms: _119  and  _122
REMARK   55  A    between atoms: _124  and  _126
REMARK   56  A    between atoms: _126  and  _127
REMARK   57  A    between atoms: _126  and  _129
REMARK   58  A    between atoms: _129  and  _130
REMARK   59  A    between atoms: _135  and  _137
REMARK   60  A    between atoms: _137  and  _138
REMARK   61  A    between atoms: _137  and  _140
REMARK   62  A    between atoms: _140  and  _141
REMARK   63  A    between atoms: _144  and  _146
REMARK   64  A    between atoms: _146  and  _147
REMARK   65  A    between atoms: _146  and  _149
REMARK   66  A    between atoms: _149  and  _150
REMARK   67  A    between atoms: _150  and  _151
REMARK   68  A    between atoms: _151  and  _152
REMARK   69  A    between atoms: _152  and  _153
REMARK   70  A    between atoms: _157  and  _159
REMARK   71  A    between atoms: _159  and  _160
REMARK   72  A    between atoms: _159  and  _162
REMARK   73  A    between atoms: _162  and  _163
REMARK   74  A    between atoms: _170  and  _171
REMARK   75  A    between atoms: _176  and  _178
REMARK   76  A    between atoms: _178  and  _179
REMARK   77  A    between atoms: _178  and  _181
REMARK   78  A    between atoms: _181  and  _182
REMARK   79  A    between atoms: _182  and  _183
REMARK   80  A    between atoms: _186  and  _188
REMARK   81  A    between atoms: _188  and  _189
REMARK   82  A    between atoms: _188  and  _191
REMARK   83  A    between atoms: _191  and  _192
REMARK   84  A    between atoms: _192  and  _193
REMARK   85  A    between atoms: _193  and  _194
REMARK   86  A    between atoms: _203  and  _205
REMARK   87  A    between atoms: _205  and  _206
REMARK   88  A    between atoms: _205  and  _208
REMARK   89  A    between atoms: _208  and  _209
REMARK   90  A    between atoms: _212  and  _214
REMARK   91  A    between atoms: _214  and  _215
REMARK   92  A    between atoms: _214  and  _217
REMARK   93  A    between atoms: _217  and  _218
REMARK   94  A    between atoms: _223  and  _225
REMARK   95  A    between atoms: _225  and  _226
REMARK   96  A    between atoms: _225  and  _228
REMARK   97  A    between atoms: _228  and  _229
REMARK   98  A    between atoms: _234  and  _235
REMARK   99  A    between atoms: _237  and  _239
REMARK  100  A    between atoms: _239  and  _240
REMARK  101  A    between atoms: _239  and  _242
REMARK  102  A    between atoms: _242  and  _243
REMARK  103  A    between atoms: _246  and  _248
REMARK  104  A    between atoms: _248  and  _249
REMARK  105  A    between atoms: _248  and  _251
REMARK  106  A    between atoms: _251  and  _252
REMARK  107  A    between atoms: _255  and  _257
REMARK  108  A    between atoms: _257  and  _258
REMARK  109  A    between atoms: _257  and  _260
REMARK  110  A    between atoms: _260  and  _261
REMARK  111  A    between atoms: _264  and  _266
REMARK  112  A    between atoms: _266  and  _267
REMARK  113  A    between atoms: _266  and  _269
REMARK  114  A    between atoms: _269  and  _270
REMARK  115  A    between atoms: _275  and  _277
REMARK  116  A    between atoms: _277  and  _278
REMARK  117  A    between atoms: _277  and  _280
REMARK  118  A    between atoms: _280  and  _281
REMARK  119  A    between atoms: _284  and  _286
REMARK  120  A    between atoms: _286  and  _287
REMARK  121  A    between atoms: _286  and  _289
REMARK  122  A    between atoms: _289  and  _290
REMARK  123  A    between atoms: _296  and  _298
REMARK  124  A    between atoms: _298  and  _299
REMARK  125  A    between atoms: _298  and  _301
REMARK  126  A    between atoms: _301  and  _302
REMARK  127  A    between atoms: _304  and  _306
REMARK  128  A    between atoms: _306  and  _307
REMARK  129  A    between atoms: _310  and  _312
REMARK  130  A    between atoms: _312  and  _313
REMARK  131  A    between atoms: _312  and  _315
REMARK  132  A    between atoms: _315  and  _316
REMARK  133  A    between atoms: _321  and  _323
REMARK  134  A    between atoms: _323  and  _324
REMARK  135  A    between atoms: _323  and  _326
REMARK  136  A    between atoms: _326  and  _327
REMARK  137  A    between atoms: _327  and  _328
REMARK  138  A    between atoms: _328  and  _329
REMARK  139  A    between atoms: _338  and  _340
REMARK  140  A    between atoms: _340  and  _341
REMARK  141  A    between atoms: _340  and  _343
REMARK  142  A    between atoms: _343  and  _344
REMARK  143  A    between atoms: _347  and  _349
REMARK  144  A    between atoms: _349  and  _350
REMARK  145  A    between atoms: _349  and  _352
REMARK  146  A    between atoms: _352  and  _353
REMARK  147  A    between atoms: _353  and  _354
REMARK  148  A    between atoms: _354  and  _355
REMARK  149  A    between atoms: _364  and  _366
REMARK  150  A    between atoms: _366  and  _367
REMARK  151  A    between atoms: _366  and  _369
REMARK  152  A    between atoms: _369  and  _370
REMARK  153  A    between atoms: _375  and  _376
REMARK  154  A    between atoms: _378  and  _380
REMARK  155  A    between atoms: _380  and  _381
REMARK  156  A    between atoms: _380  and  _383
REMARK  157  A    between atoms: _386  and  _388
REMARK  158  A    between atoms: _388  and  _389
REMARK  159  A    between atoms: _388  and  _391
REMARK  160  A    between atoms: _391  and  _392
REMARK  161  A    between atoms: _397  and  _398
REMARK  162  A    between atoms: _400  and  _402
REMARK  163  A    between atoms: _402  and  _403
REMARK  164  A    between atoms: _402  and  _405
REMARK  165  A    between atoms: _405  and  _406
REMARK  166  A    between atoms: _408  and  _410
REMARK  167  A    between atoms: _410  and  _411
REMARK  168  A    between atoms: _413  and  _415
REMARK  169  A    between atoms: _415  and  _416
REMARK  170  A    between atoms: _415  and  _418
REMARK  171  A    between atoms: _421  and  _423
REMARK  172  A    between atoms: _423  and  _424
REMARK  173  A    between atoms: _427  and  _429
REMARK  174  A    between atoms: _429  and  _430
REMARK  175  A    between atoms: _429  and  _432
REMARK  176  A    between atoms: _432  and  _433
REMARK  177  A    between atoms: _438  and  _439
REMARK  178  A    between atoms: _441  and  _443
REMARK  179  A    between atoms: _443  and  _444
REMARK  180  A    between atoms: _443  and  _446
REMARK  181  A    between atoms: _446  and  _447
REMARK  182  A    between atoms: _449  and  _451
REMARK  183  A    between atoms: _451  and  _452
REMARK  184  A    between atoms: _455  and  _457
REMARK  185  A    between atoms: _457  and  _458
REMARK  186  A    between atoms: _461  and  _463
REMARK  187  A    between atoms: _463  and  _464
REMARK  188  A    between atoms: _463  and  _466
REMARK  189  A    between atoms: _466  and  _467
REMARK  190  A    between atoms: _467  and  _468
REMARK  191  A    between atoms: _468  and  _469
REMARK  192  A    between atoms: _469  and  _470
REMARK  193  A    between atoms: _474  and  _476
REMARK  194  A    between atoms: _476  and  _477
REMARK  195  A    between atoms: _476  and  _479
REMARK  196  A    between atoms: _479  and  _480
REMARK  197  A    between atoms: _483  and  _485
REMARK  198  A    between atoms: _485  and  _486
REMARK  199  A    between atoms: _485  and  _488
REMARK  200  A    between atoms: _488  and  _489
REMARK  201  A    between atoms: _492  and  _494
REMARK  202  A    between atoms: _494  and  _495
REMARK  203  A    between atoms: _494  and  _497
REMARK  204  A    between atoms: _497  and  _498
REMARK  205  A    between atoms: _501  and  _503
REMARK  206  A    between atoms: _503  and  _504
REMARK  207  A    between atoms: _503  and  _506
REMARK  208  A    between atoms: _506  and  _507
REMARK  209  A    between atoms: _512  and  _514
REMARK  210  A    between atoms: _514  and  _515
REMARK  211  A    between atoms: _514  and  _517
REMARK  212  A    between atoms: _517  and  _518
REMARK  213  A    between atoms: _523  and  _525
REMARK  214  A    between atoms: _525  and  _526
REMARK  215  A    between atoms: _529  and  _531
REMARK  216  A    between atoms: _531  and  _532
REMARK  217  A    between atoms: _531  and  _534
REMARK  218  A    between atoms: _534  and  _535
REMARK  219  A    between atoms: _535  and  _536
REMARK  220  A    between atoms: _539  and  _541
REMARK  221  A    between atoms: _541  and  _542
REMARK  222  A    between atoms: _541  and  _544
REMARK  223  A    between atoms: _544  and  _545
REMARK  224  A    between atoms: _545  and  _546
REMARK  225  A    between atoms: _546  and  _547
REMARK  226  A    between atoms: _547  and  _548
REMARK  227  A    between atoms: _552  and  _554
REMARK  228  A    between atoms: _554  and  _555
REMARK  229  A    between atoms: _554  and  _557
REMARK  230  A    between atoms: _557  and  _558
REMARK  231  A    between atoms: _560  and  _562
REMARK  232  A    between atoms: _562  and  _563
REMARK  233  A    between atoms: _565  and  _567
REMARK  234  A    between atoms: _567  and  _568
REMARK  235  A    between atoms: _567  and  _570
REMARK  236  A    between atoms: _570  and  _571
REMARK  237  A    between atoms: _574  and  _576
REMARK  238  A    between atoms: _576  and  _577
REMARK  239  A    between atoms: _576  and  _579
REMARK  240  A    between atoms: _579  and  _580
REMARK  241  A    between atoms: _580  and  _581
REMARK  242  A    between atoms: _584  and  _586
REMARK  243  A    between atoms: _586  and  _587
REMARK  244  A    between atoms: _586  and  _589
REMARK  245  A    between atoms: _589  and  _590
REMARK  246  A    between atoms: _590  and  _591
REMARK  247  A    between atoms: _591  and  _592
REMARK  248  A    between atoms: _601  and  _603
REMARK  249  A    between atoms: _603  and  _604
REMARK  250  A    between atoms: _603  and  _606
REMARK  251  A    between atoms: _606  and  _607
REMARK  252  A    between atoms: _612  and  _613
REMARK  253  A    between atoms: _615  and  _617
REMARK  254  A    between atoms: _617  and  _618
REMARK  255  A    between atoms: _617  and  _620
REMARK  256  A    between atoms: _620  and  _621
REMARK  257  A    between atoms: _621  and  _622
REMARK  258  A    between atoms: _625  and  _627
REMARK  259  A    between atoms: _627  and  _628
REMARK  260  A    between atoms: _627  and  _630
REMARK  261  A    between atoms: _630  and  _631
REMARK  262  A    between atoms: _634  and  _636
REMARK  263  A    between atoms: _636  and  _637
REMARK  264  A    between atoms: _636  and  _639
REMARK  265  A    between atoms: _639  and  _640
REMARK  266  A    between atoms: _646  and  _648
REMARK  267  A    between atoms: _648  and  _649
REMARK  268  A    between atoms: _648  and  _651
REMARK  269  A    between atoms: _651  and  _652
REMARK  270  A    between atoms: _652  and  _653
REMARK  271  A    between atoms: _658  and  _660
REMARK  272  A    between atoms: _660  and  _661
REMARK  273  A    between atoms: _660  and  _663
REMARK  274  A    between atoms: _666  and  _668
REMARK  275  A    between atoms: _668  and  _669
REMARK  276  A    between atoms: _668  and  _671
REMARK  277  A    between atoms: _671  and  _672
REMARK  278  A    between atoms: _678  and  _680
REMARK  279  A    between atoms: _680  and  _681
REMARK  280  A    between atoms: _680  and  _683
REMARK  281  A    between atoms: _686  and  _688
REMARK  282  A    between atoms: _688  and  _689
REMARK  283  A    between atoms: _688  and  _691
REMARK  284  A    between atoms: _691  and  _692
REMARK  285  A    between atoms: _695  and  _697
REMARK  286  A    between atoms: _697  and  _698
REMARK  287  A    between atoms: _697  and  _700
REMARK  288  A    between atoms: _700  and  _701
REMARK  289  A    between atoms: _706  and  _708
REMARK  290  A    between atoms: _708  and  _709
REMARK  291  A    between atoms: _708  and  _711
REMARK  292  A    between atoms: _711  and  _712
REMARK  293  A    between atoms: _712  and  _713
REMARK  294  A    between atoms: _713  and  _714
REMARK  295  A    between atoms: _714  and  _715
REMARK  296  A    between atoms: _719  and  _721
REMARK  297  A    between atoms: _721  and  _722
REMARK  298  A    between atoms: _724  and  _726
REMARK  299  A    between atoms: _726  and  _727
REMARK  300  A    between atoms: _726  and  _729
REMARK  301  A    between atoms: _729  and  _730
REMARK  302  A    between atoms: _733  and  _735
REMARK  303  A    between atoms: _735  and  _736
REMARK  304  A    between atoms: _735  and  _738
REMARK  305  A    between atoms: _738  and  _739
REMARK  306  A    between atoms: _739  and  _740
REMARK  307  A    between atoms: _745  and  _747
REMARK  308  A    between atoms: _747  and  _748
REMARK  309  A    between atoms: _747  and  _750
REMARK  310  A    between atoms: _750  and  _751
REMARK  311  A    between atoms: _751  and  _752
REMARK  312  A    between atoms: _755  and  _757
REMARK  313  A    between atoms: _757  and  _758
REMARK  314  A    between atoms: _757  and  _760
REMARK  315  A    between atoms: _763  and  _765
REMARK  316  A    between atoms: _765  and  _766
REMARK  317  A    between atoms: _765  and  _768
REMARK  318  A    between atoms: _768  and  _769
REMARK  319  A    between atoms: _769  and  _770
REMARK                            x       y       z     vdW  Elec       q    Type
REMARK                         _______ _______ _______ _____ _____    ______ ____
ROOT
ATOM      1  CA  VAL A   1       9.326 -10.621 142.170  0.00  0.00    +0.133 C 
ENDROOT
BRANCH   1   2
ATOM      2  CB  VAL A   1       8.109  -9.694 142.353  0.00  0.00    +0.023 C 
ATOM      3  CG2 VAL A   1       8.562  -8.229 142.399  0.00  0.00    +0.002 C 
ATOM      4  CG1 VAL A   1       7.087  -9.966 141.223  0.00  0.00    +0.002 C 
ENDBRANCH   1   2
BRANCH   1   5
ATOM      5  N   VAL A   1       8.891 -11.997 141.976  0.00  0.00    -0.239 NA
ATOM      6  H   VAL A   1       7.876 -12.221 142.019  0.00  0.00    +0.142 HD
ENDBRANCH   1   5
BRANCH   1   7
ATOM      7  C   VAL A   1      10.227 -10.527 143.405  0.00  0.00    +0.224 C 
ATOM      8  O   VAL A   1      11.074  -9.639 143.500  0.00  0.00    -0.287 OA
ENDBRANCH   1   7
TORSDOF 3
REMARK  Name = ../refined-set-2016/3tmk/3tmk_pocket.pdb
REMARK  319 active torsions:
REMARK  status: ('A' for Active; 'I' for Inactive)
REMARK    1  A    between atoms: _1  and  _3
REMARK    2  A    between atoms: _3  and  _4
REMARK    3  A    between atoms: _3  and  _6
REMARK    4  A    between atoms: _6  and  _7
REMARK    5  A    between atoms: _10  and  _12
REMARK    6  A    between atoms: _12  and  _13
REMARK    7  A    between atoms: _12  and  _15
REMARK    8  A    between atoms: _15  and  _16
REMARK    9  A    between atoms: _16  and  _17
REMARK   10  A    between atoms: _20  and  _22
REMARK   11  A    between atoms: _22  and  _23
REMARK   12  A    between atoms: _25  and  _27
REMARK   13  A    between atoms: _27  and  _28
REMARK   14  A    between atoms: _27  and  _30
REMARK   15  A    between atoms: _30  and  _31
REMARK   16  A    between atoms: _34  and  _36
REMARK   17  A    between atoms: _36  and  _37
REMARK   18  A    between atoms: _36  and  _39
REMARK   19  A    between atoms: _39  and  _40
REMARK   20  A    between atoms: _43  and  _45
REMARK   21  A    between atoms: _45  and  _46
REMARK   22  A    between atoms: _45  and  _48
REMARK   23  A    between atoms: _48  and  _49
REMARK   24  A    between atoms: _49  and  _50
REMARK   25  A    between atoms: _50  and  _51
REMARK   26  A    between atoms: _60  and  _62
REMARK   27  A    between atoms: _62  and  _63
REMARK   28  A    between atoms: _62  and  _65
REMARK   29  A    between atoms: _65  and  _66
REMARK   30  A    between atoms: _69  and  _71
REMARK   31  A    between atoms: _71  and  _72
REMARK   32  A    between atoms: _74  and  _76
REMARK   33  A    between atoms: _76  and  _77
REMARK   34  A    between atoms: _76  and  _79
REMARK   35  A    between atoms: _79  and  _80
REMARK   36  A    between atoms: _80  and  _81
REMARK   37  A    between atoms: _81  and  _82
REMARK   38  A    between atoms: _82  and  _83
REMARK   39  A    between atoms: _87  and  _89
REMARK   40  A    between atoms: _89  and  _90
REMARK   41  A    between atoms: _89  and  _92
REMARK   42  A    between atoms: _92  and  _93
REMARK   43  A    between atoms: _96  and  _98
REMARK   44  A    between atoms: _98  and  _99
REMARK   45  A    between atoms: _98  and  _101
REMARK   46  A    between atoms: _101  and  _102
REMARK   47  A    between atoms: _105  and  _107
REMARK   48  A    between atoms: _107  and  _108
REMARK   49  A    between atoms: _107  and  _110
REMARK   50  A    between atoms: _110  and  _111
REMARK   51  A    between atoms: _111  and  _112
REMARK   52  A    between atoms: _117  and  _119
REMARK   53  A    between atoms: _119  and  _120
REMARK   54  A    between atoms: _119  and  _122
REMARK   55  A    between atoms: _124  and  _126
REMARK   56  A    between atoms: _126  and  _127
REMARK   57  A    between atoms: _126  and  _129
REMARK   58  A    between atoms: _129  and  _130
REMARK   59  A    between atoms: _135  and  _137
REMARK   60  A    between atoms: _137  and  _138
REMARK   61  A    between atoms: _137  and  _140
REMARK   62  A    between atoms: _140  and  _141
REMARK   63  A    between atoms: _144  and  _146
REMARK   64  A    between atoms: _146  and  _147
REMARK   65  A    between atoms: _146  and  _149
REMARK   66  A    between atoms: _149  and  _150
REMARK   67  A    between atoms: _150  and  _151
REMARK   68  A    between atoms: _151  and  _152
REMARK   69  A    between atoms: _152  and  _153
REMARK   70  A    between atoms: _157  and  _159
REMARK   71  A    between atoms: _159  and  _160
REMARK   72  A    between atoms: _159  and  _162
REMARK   73  A    between atoms: _162  and  _163
REMARK   74  A    between atoms: _170  and  _171
REMARK   75  A    between atoms: _176  and  _178
REMARK   76  A    between atoms: _178  and  _179
REMARK   77  A    between atoms: _178  and  _181
REMARK   78  A    between atoms: _181  and  _182
REMARK   79  A    between atoms: _182  and  _183
REMARK   80  A    between atoms: _186  and  _188
REMARK   81  A    between atoms: _188  and  _189
REMARK   82  A    between atoms: _188  and  _191
REMARK   83  A    between atoms: _191  and  _192
REMARK   84  A    between atoms: _192  and  _193
REMARK   85  A    between atoms: _193  and  _194
REMARK   86  A    between atoms: _203  and  _205
REMARK   87  A    between atoms: _205  and  _206
REMARK   88  A    between atoms: _205  and  _208
REMARK   89  A    between atoms: _208  and  _209
REMARK   90  A    between atoms: _212  and  _214
REMARK   91  A    between atoms: _214  and  _215
REMARK   92  A    between atoms: _214  and  _217
REMARK   93  A    between atoms: _217  and  _218
REMARK   94  A    between atoms: _223  and  _225
REMARK   95  A    between atoms: _225  and  _226
REMARK   96  A    between atoms: _225  and  _228
REMARK   97  A    between atoms: _228  and  _229
REMARK   98  A    between atoms: _234  and  _235
REMARK   99  A    between atoms: _237  and  _239
REMARK  100  A    between atoms: _239  and  _240
REMARK  101  A    between atoms: _239  and  _242
REMARK  102  A    between atoms: _242  and  _243
REMARK  103  A    between atoms: _246  and  _248
REMARK  104  A    between atoms: _248  and  _249
REMARK  105  A    between atoms: _248  and  _251
REMARK  106  A    between atoms: _251  and  _252
REMARK  107  A    between atoms: _255  and  _257
REMARK  108  A    between atoms: _257  and  _258
REMARK  109  A    between atoms: _257  and  _260
REMARK  110  A    between atoms: _260  and  _261
REMARK  111  A    between atoms: _264  and  _266
REMARK  112  A    between atoms: _266  and  _267
REMARK  113  A    between atoms: _266  and  _269
REMARK  114  A    between atoms: _269  and  _270
REMARK  115  A    between atoms: _275  and  _277
REMARK  116  A    between atoms: _277  and  _278
REMARK  117  A    between atoms: _277  and  _280
REMARK  118  A    between atoms: _280  and  _281
REMARK  119  A    between atoms: _284  and  _286
REMARK  120  A    between atoms: _286  and  _287
REMARK  121  A    between atoms: _286  and  _289
REMARK  122  A    between atoms: _289  and  _290
REMARK  123  A    between atoms: _296  and  _298
REMARK  124  A    between atoms: _298  and  _299
REMARK  125  A    between atoms: _298  and  _301
REMARK  126  A    between atoms: _301  and  _302
REMARK  127  A    between atoms: _304  and  _306
REMARK  128  A    between atoms: _306  and  _307
REMARK  129  A    between atoms: _310  and  _312
REMARK  130  A    between atoms: _312  and  _313
REMARK  131  A    between atoms: _312  and  _315
REMARK  132  A    between atoms: _315  and  _316
REMARK  133  A    between atoms: _321  and  _323
REMARK  134  A    between atoms: _323  and  _324
REMARK  135  A    between atoms: _323  and  _326
REMARK  136  A    between atoms: _326  and  _327
REMARK  137  A    between atoms: _327  and  _328
REMARK  138  A    between atoms: _328  and  _329
REMARK  139  A    between atoms: _338  and  _340
REMARK  140  A    between atoms: _340  and  _341
REMARK  141  A    between atoms: _340  and  _343
REMARK  142  A    between atoms: _343  and  _344
REMARK  143  A    between atoms: _347  and  _349
REMARK  144  A    between atoms: _349  and  _350
REMARK  145  A    between atoms: _349  and  _352
REMARK  146  A    between atoms: _352  and  _353
REMARK  147  A    between atoms: _353  and  _354
REMARK  148  A    between atoms: _354  and  _355
REMARK  149  A    between atoms: _364  and  _366
REMARK  150  A    between atoms: _366  and  _367
REMARK  151  A    between atoms: _366  and  _369
REMARK  152  A    between atoms: _369  and  _370
REMARK  153  A    between atoms: _375  and  _376
REMARK  154  A    between atoms: _378  and  _380
REMARK  155  A    between atoms: _380  and  _381
REMARK  156  A    between atoms: _380  and  _383
REMARK  157  A    between atoms: _386  and  _388
REMARK  158  A    between atoms: _388  and  _389
REMARK  159  A    between atoms: _388  and  _391
REMARK  160  A    between atoms: _391  and  _392
REMARK  161  A    between atoms: _397  and  _398
REMARK  162  A    between atoms: _400  and  _402
REMARK  163  A    between atoms: _402  and  _403
REMARK  164  A    between atoms: _402  and  _405
REMARK  165  A    between atoms: _405  and  _406
REMARK  166  A    between atoms: _408  and  _410
REMARK  167  A    between atoms: _410  and  _411
REMARK  168  A    between atoms: _413  and  _415
REMARK  169  A    between atoms: _415  and  _416
REMARK  170  A    between atoms: _415  and  _418
REMARK  171  A    between atoms: _421  and  _423
REMARK  172  A    between atoms: _423  and  _424
REMARK  173  A    between atoms: _427  and  _429
REMARK  174  A    between atoms: _429  and  _430
REMARK  175  A    between atoms: _429  and  _432
REMARK  176  A    between atoms: _432  and  _433
REMARK  177  A    between atoms: _438  and  _439
REMARK  178  A    between atoms: _441  and  _443
REMARK  179  A    between atoms: _443  and  _444
REMARK  180  A    between atoms: _443  and  _446
REMARK  181  A    between atoms: _446  and  _447
REMARK  182  A    between atoms: _449  and  _451
REMARK  183  A    between atoms: _451  and  _452
REMARK  184  A    between atoms: _455  and  _457
REMARK  185  A    between atoms: _457  and  _458
REMARK  186  A    between atoms: _461  and  _463
REMARK  187  A    between atoms: _463  and  _464
REMARK  188  A    between atoms: _463  and  _466
REMARK  189  A    between atoms: _466  and  _467
REMARK  190  A    between atoms: _467  and  _468
REMARK  191  A    between atoms: _468  and  _469
REMARK  192  A    between atoms: _469  and  _470
REMARK  193  A    between atoms: _474  and  _476
REMARK  194  A    between atoms: _476  and  _477
REMARK  195  A    between atoms: _476  and  _479
REMARK  196  A    between atoms: _479  and  _480
REMARK  197  A    between atoms: _483  and  _485
REMARK  198  A    between atoms: _485  and  _486
REMARK  199  A    between atoms: _485  and  _488
REMARK  200  A    between atoms: _488  and  _489
REMARK  201  A    between atoms: _492  and  _494
REMARK  202  A    between atoms: _494  and  _495
REMARK  203  A    between atoms: _494  and  _497
REMARK  204  A    between atoms: _497  and  _498
REMARK  205  A    between atoms: _501  and  _503
REMARK  206  A    between atoms: _503  and  _504
REMARK  207  A    between atoms: _503  and  _506
REMARK  208  A    between atoms: _506  and  _507
REMARK  209  A    between atoms: _512  and  _514
REMARK  210  A    between atoms: _514  and  _515
REMARK  211  A    between atoms: _514  and  _517
REMARK  212  A    between atoms: _517  and  _518
REMARK  213  A    between atoms: _523  and  _525
REMARK  214  A    between atoms: _525  and  _526
REMARK  215  A    between atoms: _529  and  _531
REMARK  216  A    between atoms: _531  and  _532
REMARK  217  A    between atoms: _531  and  _534
REMARK  218  A    between atoms: _534  and  _535
REMARK  219  A    between atoms: _535  and  _536
REMARK  220  A    between atoms: _539  and  _541
REMARK  221  A    between atoms: _541  and  _542
REMARK  222  A    between atoms: _541  and  _544
REMARK  223  A    between atoms: _544  and  _545
REMARK  224  A    between atoms: _545  and  _546
REMARK  225  A    between atoms: _546  and  _547
REMARK  226  A    between atoms: _547  and  _548
REMARK  227  A    between atoms: _552  and  _554
REMARK  228  A    between atoms: _554  and  _555
REMARK  229  A    between atoms: _554  and  _557
REMARK  230  A    between atoms: _557  and  _558
REMARK  231  A    between atoms: _560  and  _562
REMARK  232  A    between atoms: _562  and  _563
REMARK  233  A    between atoms: _565  and  _567
REMARK  234  A    between atoms: _567  and  _568
REMARK  235  A    between atoms: _567  and  _570
REMARK  236  A    between atoms: _570  and  _571
REMARK  237  A    between atoms: _574  and  _576
REMARK  238  A    between atoms: _576  and  _577
REMARK  239  A    between atoms: _576  and  _579
REMARK  240  A    between atoms: _579  and  _580
REMARK  241  A    between atoms: _580  and  _581
REMARK  242  A    between atoms: _584  and  _586
REMARK  243  A    between atoms: _586  and  _587
REMARK  244  A    between atoms: _586  and  _589
REMARK  245  A    between atoms: _589  and  _590
REMARK  246  A    between atoms: _590  and  _591
REMARK  247  A    between atoms: _591  and  _592
REMARK  248  A    between atoms: _601  and  _603
REMARK  249  A    between atoms: _603  and  _604
REMARK  250  A    between atoms: _603  and  _606
REMARK  251  A    between atoms: _606  and  _607
REMARK  252  A    between atoms: _612  and  _613
REMARK  253  A    between atoms: _615  and  _617
REMARK  254  A    between atoms: _617  and  _618
REMARK  255  A    between atoms: _617  and  _620
REMARK  256  A    between atoms: _620  and  _621
REMARK  257  A    between atoms: _621  and  _622
REMARK  258  A    between atoms: _625  and  _627
REMARK  259  A    between atoms: _627  and  _628
REMARK  260  A    between atoms: _627  and  _630
REMARK  261  A    between atoms: _630  and  _631
REMARK  262  A    between atoms: _634  and  _636
REMARK  263  A    between atoms: _636  and  _637
REMARK  264  A    between atoms: _636  and  _639
REMARK  265  A    between atoms: _639  and  _640
REMARK  266  A    between atoms: _646  and  _648
REMARK  267  A    between atoms: _648  and  _649
REMARK  268  A    between atoms: _648  and  _651
REMARK  269  A    between atoms: _651  and  _652
REMARK  270  A    between atoms: _652  and  _653
REMARK  271  A    between atoms: _658  and  _660
REMARK  272  A    between atoms: _660  and  _661
REMARK  273  A    between atoms: _660  and  _663
REMARK  274  A    between atoms: _666  and  _668
REMARK  275  A    between atoms: _668  and  _669
REMARK  276  A    between atoms: _668  and  _671
REMARK  277  A    between atoms: _671  and  _672
REMARK  278  A    between atoms: _678  and  _680
REMARK  279  A    between atoms: _680  and  _681
REMARK  280  A    between atoms: _680  and  _683
REMARK  281  A    between atoms: _686  and  _688
REMARK  282  A    between atoms: _688  and  _689
REMARK  283  A    between atoms: _688  and  _691
REMARK  284  A    between atoms: _691  and  _692
REMARK  285  A    between atoms: _695  and  _697
REMARK  286  A    between atoms: _697  and  _698
REMARK  287  A    between atoms: _697  and  _700
REMARK  288  A    between atoms: _700  and  _701
REMARK  289  A    between atoms: _706  and  _708
REMARK  290  A    between atoms: _708  and  _709
REMARK  291  A    between atoms: _708  and  _711
REMARK  292  A    between atoms: _711  and  _712
REMARK  293  A    between atoms: _712  and  _713
REMARK  294  A    between atoms: _713  and  _714
REMARK  295  A    between atoms: _714  and  _715
REMARK  296  A    between atoms: _719  and  _721
REMARK  297  A    between atoms: _721  and  _722
REMARK  298  A    between atoms: _724  and  _726
REMARK  299  A    between atoms: _726  and  _727
REMARK  300  A    between atoms: _726  and  _729
REMARK  301  A    between atoms: _729  and  _730
REMARK  302  A    between atoms: _733  and  _735
REMARK  303  A    between atoms: _735  and  _736
REMARK  304  A    between atoms: _735  and  _738
REMARK  305  A    between atoms: _738  and  _739
REMARK  306  A    between atoms: _739  and  _740
REMARK  307  A    between atoms: _745  and  _747
REMARK  308  A    between atoms: _747  and  _748
REMARK  309  A    between atoms: _747  and  _750
REMARK  310  A    between atoms: _750  and  _751
REMARK  311  A    between atoms: _751  and  _752
REMARK  312  A    between atoms: _755  and  _757
REMARK  313  A    between atoms: _757  and  _758
REMARK  314  A    between atoms: _757  and  _760
REMARK  315  A    between atoms: _763  and  _765
REMARK  316  A    between atoms: _765  and  _766
REMARK  317  A    between atoms: _765  and  _768
REMARK  318  A    between atoms: _768  and  _769
REMARK  319  A    between atoms: _769  and  _770
REMARK                            x       y       z     vdW  Elec       q    Type
REMARK                         _______ _______ _______ _____ _____    ______ ____
ROOT
ATOM      1  CB  PHE A   1      12.863  -7.491 145.068  0.00  0.00    +0.051 C 
ENDROOT
BRANCH   1   2
ATOM      2  CG  PHE A   1      11.940  -6.334 144.836  0.00  0.00    -0.020 A 
ATOM      3  CD2 PHE A   1      10.559  -6.511 144.852  0.00  0.00    -0.004 A 
ATOM      4  CE2 PHE A   1       9.703  -5.442 144.658  0.00  0.00    -0.000 A 
ATOM      5  CZ  PHE A   1      10.213  -4.174 144.443  0.00  0.00    -0.000 A 
ATOM      6  CE1 PHE A   1      11.591  -3.977 144.421  0.00  0.00    -0.000 A 
ATOM      7  CD1 PHE A   1      12.447  -5.060 144.619  0.00  0.00    -0.004 A 
ENDBRANCH   1   2
BRANCH   1   8
ATOM      8  CA  PHE A   1      13.975  -7.609 144.028  0.00  0.00    +0.137 C 
BRANCH   8   9
ATOM      9  N   PHE A   1      13.752  -8.781 143.182  0.00  0.00    -0.239 NA
ATOM     10  H   PHE A   1      12.966  -9.427 143.397  0.00  0.00    +0.142 HD
ENDBRANCH   8   9
BRANCH   8  11
ATOM     11  C   PHE A   1      15.333  -7.733 144.716  0.00  0.00    +0.224 C 
ATOM     12  O   PHE A   1      16.100  -6.776 144.786  0.00  0.00    -0.287 OA
ENDBRANCH   8  11
ENDBRANCH   1   8
TORSDOF 4
REMARK  Name = ../refined-set-2016/3tmk/3tmk_pocket.pdb
REMARK  319 active torsions:
REMARK  status: ('A' for Active; 'I' for Inactive)
REMARK    1  A    between atoms: _1  and  _3
REMARK    2  A    between atoms: _3  and  _4
REMARK    3  A    between atoms: _3  and  _6
REMARK    4  A    between atoms: _6  and  _7
REMARK    5  A    between atoms: _10  and  _12
REMARK    6  A    between atoms: _12  and  _13
REMARK    7  A    between atoms: _12  and  _15
REMARK    8  A    between atoms: _15  and  _16
REMARK    9  A    between atoms: _16  and  _17
REMARK   10  A    between atoms: _20  and  _22
REMARK   11  A    between atoms: _22  and  _23
REMARK   12  A    between atoms: _25  and  _27
REMARK   13  A    between atoms: _27  and  _28
REMARK   14  A    between atoms: _27  and  _30
REMARK   15  A    between atoms: _30  and  _31
REMARK   16  A    between atoms: _34  and  _36
REMARK   17  A    between atoms: _36  and  _37
REMARK   18  A    between atoms: _36  and  _39
REMARK   19  A    between atoms: _39  and  _40
REMARK   20  A    between atoms: _43  and  _45
REMARK   21  A    between atoms: _45  and  _46
REMARK   22  A    between atoms: _45  and  _48
REMARK   23  A    between atoms: _48  and  _49
REMARK   24  A    between atoms: _49  and  _50
REMARK   25  A    between atoms: _50  and  _51
REMARK   26  A    between atoms: _60  and  _62
REMARK   27  A    between atoms: _62  and  _63
REMARK   28  A    between atoms: _62  and  _65
REMARK   29  A    between atoms: _65  and  _66
REMARK   30  A    between atoms: _69  and  _71
REMARK   31  A    between atoms: _71  and  _72
REMARK   32  A    between atoms: _74  and  _76
REMARK   33  A    between atoms: _76  and  _77
REMARK   34  A    between atoms: _76  and  _79
REMARK   35  A    between atoms: _79  and  _80
REMARK   36  A    between atoms: _80  and  _81
REMARK   37  A    between atoms: _81  and  _82
REMARK   38  A    between atoms: _82  and  _83
REMARK   39  A    between atoms: _87  and  _89
REMARK   40  A    between atoms: _89  and  _90
REMARK   41  A    between atoms: _89  and  _92
REMARK   42  A    between atoms: _92  and  _93
REMARK   43  A    between atoms: _96  and  _98
REMARK   44  A    between atoms: _98  and  _99
REMARK   45  A    between atoms: _98  and  _101
REMARK   46  A    between atoms: _101  and  _102
REMARK   47  A    between atoms: _105  and  _107
REMARK   48  A    between atoms: _107  and  _108
REMARK   49  A    between atoms: _107  and  _110
REMARK   50  A    between atoms: _110  and  _111
REMARK   51  A    between atoms: _111  and  _112
REMARK   52  A    between atoms: _117  and  _119
REMARK   53  A    between atoms: _119  and  _120
REMARK   54  A    between atoms: _119  and  _122
REMARK   55  A    between atoms: _124  and  _126
REMARK   56  A    between atoms: _126  and  _127
REMARK   57  A    between atoms: _126  and  _129
REMARK   58  A    between atoms: _129  and  _130
REMARK   59  A    between atoms: _135  and  _137
REMARK   60  A    between atoms: _137  and  _138
REMARK   61  A    between atoms: _137  and  _140
REMARK   62  A    between atoms: _140  and  _141
REMARK   63  A    between atoms: _144  and  _146
REMARK   64  A    between atoms: _146  and  _147
REMARK   65  A    between atoms: _146  and  _149
REMARK   66  A    between atoms: _149  and  _150
REMARK   67  A    between atoms: _150  and  _151
REMARK   68  A    between atoms: _151  and  _152
REMARK   69  A    between atoms: _152  and  _153
REMARK   70  A    between atoms: _157  and  _159
REMARK   71  A    between atoms: _159  and  _160
REMARK   72  A    between atoms: _159  and  _162
REMARK   73  A    between atoms: _162  and  _163
REMARK   74  A    between atoms: _170  and  _171
REMARK   75  A    between atoms: _176  and  _178
REMARK   76  A    between atoms: _178  and  _179
REMARK   77  A    between atoms: _178  and  _181
REMARK   78  A    between atoms: _181  and  _182
REMARK   79  A    between atoms: _182  and  _183
REMARK   80  A    between atoms: _186  and  _188
REMARK   81  A    between atoms: _188  and  _189
REMARK   82  A    between atoms: _188  and  _191
REMARK   83  A    between atoms: _191  and  _192
REMARK   84  A    between atoms: _192  and  _193
REMARK   85  A    between atoms: _193  and  _194
REMARK   86  A    between atoms: _203  and  _205
REMARK   87  A    between atoms: _205  and  _206
REMARK   88  A    between atoms: _205  and  _208
REMARK   89  A    between atoms: _208  and  _209
REMARK   90  A    between atoms: _212  and  _214
REMARK   91  A    between atoms: _214  and  _215
REMARK   92  A    between atoms: _214  and  _217
REMARK   93  A    between atoms: _217  and  _218
REMARK   94  A    between atoms: _223  and  _225
REMARK   95  A    between atoms: _225  and  _226
REMARK   96  A    between atoms: _225  and  _228
REMARK   97  A    between atoms: _228  and  _229
REMARK   98  A    between atoms: _234  and  _235
REMARK   99  A    between atoms: _237  and  _239
REMARK  100  A    between atoms: _239  and  _240
REMARK  101  A    between atoms: _239  and  _242
REMARK  102  A    between atoms: _242  and  _243
REMARK  103  A    between atoms: _246  and  _248
REMARK  104  A    between atoms: _248  and  _249
REMARK  105  A    between atoms: _248  and  _251
REMARK  106  A    between atoms: _251  and  _252
REMARK  107  A    between atoms: _255  and  _257
REMARK  108  A    between atoms: _257  and  _258
REMARK  109  A    between atoms: _257  and  _260
REMARK  110  A    between atoms: _260  and  _261
REMARK  111  A    between atoms: _264  and  _266
REMARK  112  A    between atoms: _266  and  _267
REMARK  113  A    between atoms: _266  and  _269
REMARK  114  A    between atoms: _269  and  _270
REMARK  115  A    between atoms: _275  and  _277
REMARK  116  A    between atoms: _277  and  _278
REMARK  117  A    between atoms: _277  and  _280
REMARK  118  A    between atoms: _280  and  _281
REMARK  119  A    between atoms: _284  and  _286
REMARK  120  A    between atoms: _286  and  _287
REMARK  121  A    between atoms: _286  and  _289
REMARK  122  A    between atoms: _289  and  _290
REMARK  123  A    between atoms: _296  and  _298
REMARK  124  A    between atoms: _298  and  _299
REMARK  125  A    between atoms: _298  and  _301
REMARK  126  A    between atoms: _301  and  _302
REMARK  127  A    between atoms: _304  and  _306
REMARK  128  A    between atoms: _306  and  _307
REMARK  129  A    between atoms: _310  and  _312
REMARK  130  A    between atoms: _312  and  _313
REMARK  131  A    between atoms: _312  and  _315
REMARK  132  A    between atoms: _315  and  _316
REMARK  133  A    between atoms: _321  and  _323
REMARK  134  A    between atoms: _323  and  _324
REMARK  135  A    between atoms: _323  and  _326
REMARK  136  A    between atoms: _326  and  _327
REMARK  137  A    between atoms: _327  and  _328
REMARK  138  A    between atoms: _328  and  _329
REMARK  139  A    between atoms: _338  and  _340
REMARK  140  A    between atoms: _340  and  _341
REMARK  141  A    between atoms: _340  and  _343
REMARK  142  A    between atoms: _343  and  _344
REMARK  143  A    between atoms: _347  and  _349
REMARK  144  A    between atoms: _349  and  _350
REMARK  145  A    between atoms: _349  and  _352
REMARK  146  A    between atoms: _352  and  _353
REMARK  147  A    between atoms: _353  and  _354
REMARK  148  A    between atoms: _354  and  _355
REMARK  149  A    between atoms: _364  and  _366
REMARK  150  A    between atoms: _366  and  _367
REMARK  151  A    between atoms: _366  and  _369
REMARK  152  A    between atoms: _369  and  _370
REMARK  153  A    between atoms: _375  and  _376
REMARK  154  A    between atoms: _378  and  _380
REMARK  155  A    between atoms: _380  and  _381
REMARK  156  A    between atoms: _380  and  _383
REMARK  157  A    between atoms: _386  and  _388
REMARK  158  A    between atoms: _388  and  _389
REMARK  159  A    between atoms: _388  and  _391
REMARK  160  A    between atoms: _391  and  _392
REMARK  161  A    between atoms: _397  and  _398
REMARK  162  A    between atoms: _400  and  _402
REMARK  163  A    between atoms: _402  and  _403
REMARK  164  A    between atoms: _402  and  _405
REMARK  165  A    between atoms: _405  and  _406
REMARK  166  A    between atoms: _408  and  _410
REMARK  167  A    between atoms: _410  and  _411
REMARK  168  A    between atoms: _413  and  _415
REMARK  169  A    between atoms: _415  and  _416
REMARK  170  A    between atoms: _415  and  _418
REMARK  171  A    between atoms: _421  and  _423
REMARK  172  A    between atoms: _423  and  _424
REMARK  173  A    between atoms: _427  and  _429
REMARK  174  A    between atoms: _429  and  _430
REMARK  175  A    between atoms: _429  and  _432
REMARK  176  A    between atoms: _432  and  _433
REMARK  177  A    between atoms: _438  and  _439
REMARK  178  A    between atoms: _441  and  _443
REMARK  179  A    between atoms: _443  and  _444
REMARK  180  A    between atoms: _443  and  _446
REMARK  181  A    between atoms: _446  and  _447
REMARK  182  A    between atoms: _449  and  _451
REMARK  183  A    between atoms: _451  and  _452
REMARK  184  A    between atoms: _455  and  _457
REMARK  185  A    between atoms: _457  and  _458
REMARK  186  A    between atoms: _461  and  _463
REMARK  187  A    between atoms: _463  and  _464
REMARK  188  A    between atoms: _463  and  _466
REMARK  189  A    between atoms: _466  and  _467
REMARK  190  A    between atoms: _467  and  _468
REMARK  191  A    between atoms: _468  and  _469
REMARK  192  A    between atoms: _469  and  _470
REMARK  193  A    between atoms: _474  and  _476
REMARK  194  A    between atoms: _476  and  _477
REMARK  195  A    between atoms: _476  and  _479
REMARK  196  A    between atoms: _479  and  _480
REMARK  197  A    between atoms: _483  and  _485
REMARK  198  A    between atoms: _485  and  _486
REMARK  199  A    between atoms: _485  and  _488
REMARK  200  A    between atoms: _488  and  _489
REMARK  201  A    between atoms: _492  and  _494
REMARK  202  A    between atoms: _494  and  _495
REMARK  203  A    between atoms: _494  and  _497
REMARK  204  A    between atoms: _497  and  _498
REMARK  205  A    between atoms: _501  and  _503
REMARK  206  A    between atoms: _503  and  _504
REMARK  207  A    between atoms: _503  and  _506
REMARK  208  A    between atoms: _506  and  _507
REMARK  209  A    between atoms: _512  and  _514
REMARK  210  A    between atoms: _514  and  _515
REMARK  211  A    between atoms: _514  and  _517
REMARK  212  A    between atoms: _517  and  _518
REMARK  213  A    between atoms: _523  and  _525
REMARK  214  A    between atoms: _525  and  _526
REMARK  215  A    between atoms: _529  and  _531
REMARK  216  A    between atoms: _531  and  _532
REMARK  217  A    between atoms: _531  and  _534
REMARK  218  A    between atoms: _534  and  _535
REMARK  219  A    between atoms: _535  and  _536
REMARK  220  A    between atoms: _539  and  _541
REMARK  221  A    between atoms: _541  and  _542
REMARK  222  A    between atoms: _541  and  _544
REMARK  223  A    between atoms: _544  and  _545
REMARK  224  A    between atoms: _545  and  _546
REMARK  225  A    between atoms: _546  and  _547
REMARK  226  A    between atoms: _547  and  _548
REMARK  227  A    between atoms: _552  and  _554
REMARK  228  A    between atoms: _554  and  _555
REMARK  229  A    between atoms: _554  and  _557
REMARK  230  A    between atoms: _557  and  _558
REMARK  231  A    between atoms: _560  and  _562
REMARK  232  A    between atoms: _562  and  _563
REMARK  233  A    between atoms: _565  and  _567
REMARK  234  A    between atoms: _567  and  _568
REMARK  235  A    between atoms: _567  and  _570
REMARK  236  A    between atoms: _570  and  _571
REMARK  237  A    between atoms: _574  and  _576
REMARK  238  A    between atoms: _576  and  _577
REMARK  239  A    between atoms: _576  and  _579
REMARK  240  A    between atoms: _579  and  _580
REMARK  241  A    between atoms: _580  and  _581
REMARK  242  A    between atoms: _584  and  _586
REMARK  243  A    between atoms: _586  and  _587
REMARK  244  A    between atoms: _586  and  _589
REMARK  245  A    between atoms: _589  and  _590
REMARK  246  A    between atoms: _590  and  _591
REMARK  247  A    between atoms: _591  and  _592
REMARK  248  A    between atoms: _601  and  _603
REMARK  249  A    between atoms: _603  and  _604
REMARK  250  A    between atoms: _603  and  _606
REMARK  251  A    between atoms: _606  and  _607
REMARK  252  A    between atoms: _612  and  _613
REMARK  253  A    between atoms: _615  and  _617
REMARK  254  A    between atoms: _617  and  _618
REMARK  255  A    between atoms: _617  and  _620
REMARK  256  A    between atoms: _620  and  _621
REMARK  257  A    between atoms: _621  and  _622
REMARK  258  A    between atoms: _625  and  _627
REMARK  259  A    between atoms: _627  and  _628
REMARK  260  A    between atoms: _627  and  _630
REMARK  261  A    between atoms: _630  and  _631
REMARK  262  A    between atoms: _634  and  _636
REMARK  263  A    between atoms: _636  and  _637
REMARK  264  A    between atoms: _636  and  _639
REMARK  265  A    between atoms: _639  and  _640
REMARK  266  A    between atoms: _646  and  _648
REMARK  267  A    between atoms: _648  and  _649
REMARK  268  A    between atoms: _648  and  _651
REMARK  269  A    between atoms: _651  and  _652
REMARK  270  A    between atoms: _652  and  _653
REMARK  271  A    between atoms: _658  and  _660
REMARK  272  A    between atoms: _660  and  _661
REMARK  273  A    between atoms: _660  and  _663
REMARK  274  A    between atoms: _666  and  _668
REMARK  275  A    between atoms: _668  and  _669
REMARK  276  A    between atoms: _668  and  _671
REMARK  277  A    between atoms: _671  and  _672
REMARK  278  A    between atoms: _678  and  _680
REMARK  279  A    between atoms: _680  and  _681
REMARK  280  A    between atoms: _680  and  _683
REMARK  281  A    between atoms: _686  and  _688
REMARK  282  A    between atoms: _688  and  _689
REMARK  283  A    between atoms: _688  and  _691
REMARK  284  A    between atoms: _691  and  _692
REMARK  285  A    between atoms: _695  and  _697
REMARK  286  A    between atoms: _697  and  _698
REMARK  287  A    between atoms: _697  and  _700
REMARK  288  A    between atoms: _700  and  _701
REMARK  289  A    between atoms: _706  and  _708
REMARK  290  A    between atoms: _708  and  _709
REMARK  291  A    between atoms: _708  and  _711
REMARK  292  A    between atoms: _711  and  _712
REMARK  293  A    between atoms: _712  and  _713
REMARK  294  A    between atoms: _713  and  _714
REMARK  295  A    between atoms: _714  and  _715
REMARK  296  A    between atoms: _719  and  _721
REMARK  297  A    between atoms: _721  and  _722
REMARK  298  A    between atoms: _724  and  _726
REMARK  299  A    between atoms: _726  and  _727
REMARK  300  A    between atoms: _726  and  _729
REMARK  301  A    between atoms: _729  and  _730
REMARK  302  A    between atoms: _733  and  _735
REMARK  303  A    between atoms: _735  and  _736
REMARK  304  A    between atoms: _735  and  _738
REMARK  305  A    between atoms: _738  and  _739
REMARK  306  A    between atoms: _739  and  _740
REMARK  307  A    between atoms: _745  and  _747
REMARK  308  A    between atoms: _747  and  _748
REMARK  309  A    between atoms: _747  and  _750
REMARK  310  A    between atoms: _750  and  _751
REMARK  311  A    between atoms: _751  and  _752
REMARK  312  A    between atoms: _755  and  _757
REMARK  313  A    between atoms: _757  and  _758
REMARK  314  A    between atoms: _757  and  _760
REMARK  315  A    between atoms: _763  and  _765
REMARK  316  A    between atoms: _765  and  _766
REMARK  317  A    between atoms: _765  and  _768
REMARK  318  A    between atoms: _768  and  _769
REMARK  319  A    between atoms: _769  and  _770
REMARK                            x       y       z     vdW  Elec       q    Type
REMARK                         _______ _______ _______ _____ _____    ______ ____
ROOT
ATOM      1  C   GLY A   5       3.674  -3.198 163.255  0.00  0.00    +0.243 C 
ATOM      2  O   GLY A   5       4.852  -2.873 163.119  0.00  0.00    -0.273 OA
ATOM      3  N   ILE A   6       2.649  -2.392 162.996  0.00  0.00    -0.297 N 
ATOM      4  H   ILE A   6       1.689  -2.743 163.190  0.00  0.00    +0.150 HD
ENDROOT
BRANCH   3   5
ATOM      5  CA  ILE A   6       2.792  -1.043 162.455  0.00  0.00    +0.149 C 
BRANCH   5   6
ATOM      6  C   ILE A   6       3.695  -0.085 163.233  0.00  0.00    +0.241 C 
ATOM      7  N   GLN A   7       3.542  -0.080 164.555  0.00  0.00    -0.297 N 
ATOM      8  H   GLN A   7       2.838  -0.709 164.991  0.00  0.00    +0.150 HD
ATOM      9  O   ILE A   6       4.506   0.654 162.646  0.00  0.00    -0.273 OA
BRANCH   7  10
ATOM     10  CA  GLN A   7       4.347   0.795 165.402  0.00  0.00    +0.149 C 
BRANCH  10  11
ATOM     11  C   GLN A   7       5.792   0.316 165.388  0.00  0.00    +0.241 C 
ATOM     12  N   GLU A   8       5.981  -0.992 165.431  0.00  0.00    -0.297 N 
ATOM     13  H   GLU A   8       5.160  -1.629 165.481  0.00  0.00    +0.150 HD
ATOM     14  O   GLN A   7       6.710   1.108 165.317  0.00  0.00    -0.273 OA
BRANCH  12  15
ATOM     15  CA  GLU A   8       7.314  -1.547 165.409  0.00  0.00    +0.149 C 
BRANCH  15  16
ATOM     16  C   GLU A   8       8.002  -1.183 164.101  0.00  0.00    +0.241 C 
ATOM     17  O   GLU A   8       9.076  -0.579 164.103  0.00  0.00    -0.273 OA
ATOM     18  N   VAL A   9       7.381  -1.541 162.979  0.00  0.00    -0.297 N 
ATOM     19  H   VAL A   9       6.467  -2.036 163.023  0.00  0.00    +0.150 HD
BRANCH  18  20
ATOM     20  CA  VAL A   9       7.984  -1.238 161.692  0.00  0.00    +0.149 C 
BRANCH  20  21
ATOM     21  C   VAL A   9       8.230   0.258 161.611  0.00  0.00    +0.241 C 
ATOM     22  N   GLU A  10       7.329   1.055 162.169  0.00  0.00    -0.298 N 
ATOM     23  H   GLU A  10       6.496   0.649 162.641  0.00  0.00    +0.150 HD
ATOM     24  O   VAL A   9       9.247   0.696 161.085  0.00  0.00    -0.273 OA
BRANCH  22  25
ATOM     25  CA  GLU A  10       7.508   2.500 162.120  0.00  0.00    +0.137 C 
BRANCH  25  26
ATOM     26  C   GLU A  10       8.762   2.973 162.844  0.00  0.00    +0.227 C 
ATOM     27  O   GLU A  10       9.429   3.931 162.426  0.00  0.00    -0.286 OA
ENDBRANCH  25  26
BRANCH  25  28
ATOM     28  CB  GLU A  10       6.322   3.213 162.747  0.00  0.00    +0.039 C 
BRANCH  28  29
ATOM     29  CG  GLU A  10       6.635   4.670 162.966  0.00  0.00    +0.116 C 
BRANCH  29  30
ATOM     30  CD  GLU A  10       5.553   5.415 163.700  0.00  0.00    +0.365 C 
ATOM     31  OE2 GLU A  10       4.659   4.767 164.283  0.00  0.00    -0.246 OA
ATOM     32  OE1 GLU A  10       5.602   6.663 163.687  0.00  0.00    -0.246 OA
ENDBRANCH  29  30
ENDBRANCH  28  29
ENDBRANCH  25  28
ENDBRANCH  22  25
ENDBRANCH  20  21
BRANCH  20  33
ATOM     33  CB  VAL A   9       7.086  -1.699 160.513  0.00  0.00    +0.027 C 
ATOM     34  CG2 VAL A   9       7.086  -3.213 160.421  0.00  0.00    +0.002 C 
ATOM     35  CG1 VAL A   9       7.596  -1.093 159.201  0.00  0.00    +0.002 C 
ENDBRANCH  20  33
ENDBRANCH  18  20
ENDBRANCH  15  16
BRANCH  15  36
ATOM     36  CB  GLU A   8       7.250  -3.058 165.559  0.00  0.00    +0.041 C 
BRANCH  36  37
ATOM     37  CG  GLU A   8       8.591  -3.722 165.603  0.00  0.00    +0.116 C 
BRANCH  37  38
ATOM     38  CD  GLU A   8       8.527  -5.095 166.228  0.00  0.00    +0.365 C 
ATOM     39  OE2 GLU A   8       9.560  -5.531 166.785  0.00  0.00    -0.246 OA
ATOM     40  OE1 GLU A   8       7.450  -5.743 166.169  0.00  0.00    -0.246 OA
ENDBRANCH  37  38
ENDBRANCH  36  37
ENDBRANCH  15  36
ENDBRANCH  12  15
ENDBRANCH  10  11
BRANCH  10  41
ATOM     41  CB  GLN A   7       3.795   0.801 166.833  0.00  0.00    +0.039 C 
BRANCH  41  42
ATOM     42  CG  GLN A   7       3.500   2.203 167.381  0.00  0.00    +0.087 C 
BRANCH  42  43
ATOM     43  CD  GLN A   7       2.330   2.915 166.675  0.00  0.00    +0.219 C 
ATOM     44  NE2 GLN A   7       2.463   4.234 166.509  0.00  0.00    -0.329 N 
ATOM     45 HE21 GLN A   7       3.319   4.717 166.849  0.00  0.00    +0.145 HD
ATOM     46 HE22 GLN A   7       1.711   4.778 166.040  0.00  0.00    +0.145 HD
ATOM     47  OE1 GLN A   7       1.326   2.292 166.286  0.00  0.00    -0.275 OA
ENDBRANCH  42  43
ENDBRANCH  41  42
ENDBRANCH  10  41
ENDBRANCH   7  10
ENDBRANCH   5   6
BRANCH   5  48
ATOM     48  CB  ILE A   6       1.394  -0.392 162.286  0.00  0.00    +0.027 C 
ATOM     49  CG2 ILE A   6       1.535   1.082 161.946  0.00  0.00    +0.002 C 
BRANCH  48  50
ATOM     50  CG1 ILE A   6       0.611  -1.132 161.194  0.00  0.00    +0.002 C 
ATOM     51  CD1 ILE A   6      -0.697  -0.486 160.824  0.00  0.00    +0.000 C 
ENDBRANCH  48  50
ENDBRANCH   5  48
ENDBRANCH   3   5
BRANCH   1  52
ATOM     52  CA  GLY A   5       3.310  -4.567 163.765  0.00  0.00    +0.176 C 
BRANCH  52  54
ATOM     53  C   LYS A   4       4.992  -5.940 162.694  0.00  0.00    +0.241 C 
ATOM     54  N   GLY A   5       4.487  -5.407 163.799  0.00  0.00    -0.295 N 
ATOM     55  H   GLY A   5       4.948  -5.598 164.711  0.00  0.00    +0.150 HD
ATOM     56  O   LYS A   4       4.510  -5.769 161.582  0.00  0.00    -0.273 OA
BRANCH  53  57
ATOM     57  CA  LYS A   4       6.224  -6.792 162.882  0.00  0.00    +0.149 C 
BRANCH  57  60
ATOM     58  C   ASN A   3       5.773  -9.135 162.705  0.00  0.00    +0.241 C 
ATOM     59  O   ASN A   3       5.455  -9.165 163.901  0.00  0.00    -0.273 OA
ATOM     60  N   LYS A   4       6.151  -8.011 162.107  0.00  0.00    -0.297 N 
ATOM     61  H   LYS A   4       6.391  -8.007 161.095  0.00  0.00    +0.150 HD
BRANCH  58  62
ATOM     62  CA  ASN A   3       5.723 -10.412 161.871  0.00  0.00    +0.158 C 
BRANCH  62  65
ATOM     63  C   THR A   2       7.729 -10.235 160.463  0.00  0.00    +0.243 C 
ATOM     64  O   THR A   2       8.470 -10.099 161.429  0.00  0.00    -0.273 OA
ATOM     65  N   ASN A   3       6.413 -10.372 160.578  0.00  0.00    -0.297 N 
ATOM     66  H   ASN A   3       5.845 -10.455 159.710  0.00  0.00    +0.150 HD
BRANCH  63  67
ATOM     67  CA  THR A   2       8.282 -10.229 159.036  0.00  0.00    +0.176 C 
BRANCH  67  70
ATOM     68  C   VAL A   1       8.458  -7.821 158.949  0.00  0.00    +0.238 C 
ATOM     69  O   VAL A   1       7.293  -7.682 159.313  0.00  0.00    -0.274 OA
ATOM     70  N   THR A   2       9.027  -9.007 158.775  0.00  0.00    -0.295 N 
ATOM     71  H   THR A   2      10.013  -9.063 158.450  0.00  0.00    +0.150 HD
BRANCH  68  72
ATOM     72  CA  VAL A   1       9.313  -6.613 158.672  0.00  0.00    +0.145 C 
BRANCH  72  73
ATOM     73  CB  VAL A   1       8.491  -5.630 157.836  0.00  0.00    +0.025 C 
ATOM     74  CG2 VAL A   1       9.269  -4.325 157.648  0.00  0.00    +0.002 C 
ATOM     75  CG1 VAL A   1       8.104  -6.285 156.505  0.00  0.00    +0.002 C 
ENDBRANCH  72  73
BRANCH  72  76
ATOM     76  N   VAL A   1      10.535  -7.002 157.998  0.00  0.00    -0.238 NA
ATOM     77  H   VAL A   1      10.482  -7.465 157.068  0.00  0.00    +0.142 HD
ENDBRANCH  72  76
ENDBRANCH  68  72
ENDBRANCH  67  70
BRANCH  67  78
ATOM     78  CB  THR A   2       9.164 -11.453 158.845  0.00  0.00    +0.137 C 
ATOM     79  CG2 THR A   2       8.323 -12.693 158.771  0.00  0.00    +0.034 C 
BRANCH  78  80
ATOM     80  OG1 THR A   2       9.906 -11.316 157.628  0.00  0.00    -0.382 OA
ATOM     81  HG1 THR A   2      10.471 -10.504 157.677  0.00  0.00    +0.210 HD
ENDBRANCH  78  80
ENDBRANCH  67  78
ENDBRANCH  63  67
ENDBRANCH  62  65
BRANCH  62  82
ATOM     82  CB  ASN A   3       6.258 -11.561 162.723  0.00  0.00    +0.114 C 
BRANCH  82  83
ATOM     83  CG  ASN A   3       5.874 -12.911 162.170  0.00  0.00    +0.222 C 
ATOM     84  OD1 ASN A   3       6.676 -13.857 162.180  0.00  0.00    -0.275 OA
ATOM     85  ND2 ASN A   3       4.643 -13.015 161.669  0.00  0.00    -0.329 N 
ATOM     86 HD21 ASN A   3       4.005 -12.194 161.682  0.00  0.00    +0.145 HD
ATOM     87 HD22 ASN A   3       4.321 -13.917 161.265  0.00  0.00    +0.145 HD
ENDBRANCH  82  83
ENDBRANCH  62  82
ENDBRANCH  58  62
ENDBRANCH  57  60
BRANCH  57  88
ATOM     88  CB  LYS A   4       7.468  -6.004 162.498  0.00  0.00    +0.029 C 
BRANCH  88  89
ATOM     89  CG  LYS A   4       8.770  -6.739 162.790  0.00  0.00    +0.000 C 
BRANCH  89  90
ATOM     90  CD  LYS A   4       9.928  -5.778 162.639  0.00  0.00    -0.024 C 
BRANCH  90  91
ATOM     91  CE  LYS A   4      11.225  -6.526 162.546  0.00  0.00    -0.086 C 
BRANCH  91  92
ATOM     92  NZ  LYS A   4      10.948  -7.958 162.725  0.00  0.00    +0.380 N 
ATOM     93  HZ1 LYS A   4      10.514  -8.112 163.657  0.00  0.00    -0.089 HD
ATOM     94  HZ2 LYS A   4      11.838  -8.492 162.663  0.00  0.00    -0.089 HD
ATOM     95  HZ3 LYS A   4      10.297  -8.280 161.981  0.00  0.00    -0.089 HD
ENDBRANCH  91  92
ENDBRANCH  90  91
ENDBRANCH  89  90
ENDBRANCH  88  89
ENDBRANCH  57  88
ENDBRANCH  53  57
ENDBRANCH  52  54
ENDBRANCH   1  52
TORSDOF 42
REMARK  Name = ../refined-set-2016/3tmk/3tmk_pocket.pdb
REMARK  319 active torsions:
REMARK  status: ('A' for Active; 'I' for Inactive)
REMARK    1  A    between atoms: _1  and  _3
REMARK    2  A    between atoms: _3  and  _4
REMARK    3  A    between atoms: _3  and  _6
REMARK    4  A    between atoms: _6  and  _7
REMARK    5  A    between atoms: _10  and  _12
REMARK    6  A    between atoms: _12  and  _13
REMARK    7  A    between atoms: _12  and  _15
REMARK    8  A    between atoms: _15  and  _16
REMARK    9  A    between atoms: _16  and  _17
REMARK   10  A    between atoms: _20  and  _22
REMARK   11  A    between atoms: _22  and  _23
REMARK   12  A    between atoms: _25  and  _27
REMARK   13  A    between atoms: _27  and  _28
REMARK   14  A    between atoms: _27  and  _30
REMARK   15  A    between atoms: _30  and  _31
REMARK   16  A    between atoms: _34  and  _36
REMARK   17  A    between atoms: _36  and  _37
REMARK   18  A    between atoms: _36  and  _39
REMARK   19  A    between atoms: _39  and  _40
REMARK   20  A    between atoms: _43  and  _45
REMARK   21  A    between atoms: _45  and  _46
REMARK   22  A    between atoms: _45  and  _48
REMARK   23  A    between atoms: _48  and  _49
REMARK   24  A    between atoms: _49  and  _50
REMARK   25  A    between atoms: _50  and  _51
REMARK   26  A    between atoms: _60  and  _62
REMARK   27  A    between atoms: _62  and  _63
REMARK   28  A    between atoms: _62  and  _65
REMARK   29  A    between atoms: _65  and  _66
REMARK   30  A    between atoms: _69  and  _71
REMARK   31  A    between atoms: _71  and  _72
REMARK   32  A    between atoms: _74  and  _76
REMARK   33  A    between atoms: _76  and  _77
REMARK   34  A    between atoms: _76  and  _79
REMARK   35  A    between atoms: _79  and  _80
REMARK   36  A    between atoms: _80  and  _81
REMARK   37  A    between atoms: _81  and  _82
REMARK   38  A    between atoms: _82  and  _83
REMARK   39  A    between atoms: _87  and  _89
REMARK   40  A    between atoms: _89  and  _90
REMARK   41  A    between atoms: _89  and  _92
REMARK   42  A    between atoms: _92  and  _93
REMARK   43  A    between atoms: _96  and  _98
REMARK   44  A    between atoms: _98  and  _99
REMARK   45  A    between atoms: _98  and  _101
REMARK   46  A    between atoms: _101  and  _102
REMARK   47  A    between atoms: _105  and  _107
REMARK   48  A    between atoms: _107  and  _108
REMARK   49  A    between atoms: _107  and  _110
REMARK   50  A    between atoms: _110  and  _111
REMARK   51  A    between atoms: _111  and  _112
REMARK   52  A    between atoms: _117  and  _119
REMARK   53  A    between atoms: _119  and  _120
REMARK   54  A    between atoms: _119  and  _122
REMARK   55  A    between atoms: _124  and  _126
REMARK   56  A    between atoms: _126  and  _127
REMARK   57  A    between atoms: _126  and  _129
REMARK   58  A    between atoms: _129  and  _130
REMARK   59  A    between atoms: _135  and  _137
REMARK   60  A    between atoms: _137  and  _138
REMARK   61  A    between atoms: _137  and  _140
REMARK   62  A    between atoms: _140  and  _141
REMARK   63  A    between atoms: _144  and  _146
REMARK   64  A    between atoms: _146  and  _147
REMARK   65  A    between atoms: _146  and  _149
REMARK   66  A    between atoms: _149  and  _150
REMARK   67  A    between atoms: _150  and  _151
REMARK   68  A    between atoms: _151  and  _152
REMARK   69  A    between atoms: _152  and  _153
REMARK   70  A    between atoms: _157  and  _159
REMARK   71  A    between atoms: _159  and  _160
REMARK   72  A    between atoms: _159  and  _162
REMARK   73  A    between atoms: _162  and  _163
REMARK   74  A    between atoms: _170  and  _171
REMARK   75  A    between atoms: _176  and  _178
REMARK   76  A    between atoms: _178  and  _179
REMARK   77  A    between atoms: _178  and  _181
REMARK   78  A    between atoms: _181  and  _182
REMARK   79  A    between atoms: _182  and  _183
REMARK   80  A    between atoms: _186  and  _188
REMARK   81  A    between atoms: _188  and  _189
REMARK   82  A    between atoms: _188  and  _191
REMARK   83  A    between atoms: _191  and  _192
REMARK   84  A    between atoms: _192  and  _193
REMARK   85  A    between atoms: _193  and  _194
REMARK   86  A    between atoms: _203  and  _205
REMARK   87  A    between atoms: _205  and  _206
REMARK   88  A    between atoms: _205  and  _208
REMARK   89  A    between atoms: _208  and  _209
REMARK   90  A    between atoms: _212  and  _214
REMARK   91  A    between atoms: _214  and  _215
REMARK   92  A    between atoms: _214  and  _217
REMARK   93  A    between atoms: _217  and  _218
REMARK   94  A    between atoms: _223  and  _225
REMARK   95  A    between atoms: _225  and  _226
REMARK   96  A    between atoms: _225  and  _228
REMARK   97  A    between atoms: _228  and  _229
REMARK   98  A    between atoms: _234  and  _235
REMARK   99  A    between atoms: _237  and  _239
REMARK  100  A    between atoms: _239  and  _240
REMARK  101  A    between atoms: _239  and  _242
REMARK  102  A    between atoms: _242  and  _243
REMARK  103  A    between atoms: _246  and  _248
REMARK  104  A    between atoms: _248  and  _249
REMARK  105  A    between atoms: _248  and  _251
REMARK  106  A    between atoms: _251  and  _252
REMARK  107  A    between atoms: _255  and  _257
REMARK  108  A    between atoms: _257  and  _258
REMARK  109  A    between atoms: _257  and  _260
REMARK  110  A    between atoms: _260  and  _261
REMARK  111  A    between atoms: _264  and  _266
REMARK  112  A    between atoms: _266  and  _267
REMARK  113  A    between atoms: _266  and  _269
REMARK  114  A    between atoms: _269  and  _270
REMARK  115  A    between atoms: _275  and  _277
REMARK  116  A    between atoms: _277  and  _278
REMARK  117  A    between atoms: _277  and  _280
REMARK  118  A    between atoms: _280  and  _281
REMARK  119  A    between atoms: _284  and  _286
REMARK  120  A    between atoms: _286  and  _287
REMARK  121  A    between atoms: _286  and  _289
REMARK  122  A    between atoms: _289  and  _290
REMARK  123  A    between atoms: _296  and  _298
REMARK  124  A    between atoms: _298  and  _299
REMARK  125  A    between atoms: _298  and  _301
REMARK  126  A    between atoms: _301  and  _302
REMARK  127  A    between atoms: _304  and  _306
REMARK  128  A    between atoms: _306  and  _307
REMARK  129  A    between atoms: _310  and  _312
REMARK  130  A    between atoms: _312  and  _313
REMARK  131  A    between atoms: _312  and  _315
REMARK  132  A    between atoms: _315  and  _316
REMARK  133  A    between atoms: _321  and  _323
REMARK  134  A    between atoms: _323  and  _324
REMARK  135  A    between atoms: _323  and  _326
REMARK  136  A    between atoms: _326  and  _327
REMARK  137  A    between atoms: _327  and  _328
REMARK  138  A    between atoms: _328  and  _329
REMARK  139  A    between atoms: _338  and  _340
REMARK  140  A    between atoms: _340  and  _341
REMARK  141  A    between atoms: _340  and  _343
REMARK  142  A    between atoms: _343  and  _344
REMARK  143  A    between atoms: _347  and  _349
REMARK  144  A    between atoms: _349  and  _350
REMARK  145  A    between atoms: _349  and  _352
REMARK  146  A    between atoms: _352  and  _353
REMARK  147  A    between atoms: _353  and  _354
REMARK  148  A    between atoms: _354  and  _355
REMARK  149  A    between atoms: _364  and  _366
REMARK  150  A    between atoms: _366  and  _367
REMARK  151  A    between atoms: _366  and  _369
REMARK  152  A    between atoms: _369  and  _370
REMARK  153  A    between atoms: _375  and  _376
REMARK  154  A    between atoms: _378  and  _380
REMARK  155  A    between atoms: _380  and  _381
REMARK  156  A    between atoms: _380  and  _383
REMARK  157  A    between atoms: _386  and  _388
REMARK  158  A    between atoms: _388  and  _389
REMARK  159  A    between atoms: _388  and  _391
REMARK  160  A    between atoms: _391  and  _392
REMARK  161  A    between atoms: _397  and  _398
REMARK  162  A    between atoms: _400  and  _402
REMARK  163  A    between atoms: _402  and  _403
REMARK  164  A    between atoms: _402  and  _405
REMARK  165  A    between atoms: _405  and  _406
REMARK  166  A    between atoms: _408  and  _410
REMARK  167  A    between atoms: _410  and  _411
REMARK  168  A    between atoms: _413  and  _415
REMARK  169  A    between atoms: _415  and  _416
REMARK  170  A    between atoms: _415  and  _418
REMARK  171  A    between atoms: _421  and  _423
REMARK  172  A    between atoms: _423  and  _424
REMARK  173  A    between atoms: _427  and  _429
REMARK  174  A    between atoms: _429  and  _430
REMARK  175  A    between atoms: _429  and  _432
REMARK  176  A    between atoms: _432  and  _433
REMARK  177  A    between atoms: _438  and  _439
REMARK  178  A    between atoms: _441  and  _443
REMARK  179  A    between atoms: _443  and  _444
REMARK  180  A    between atoms: _443  and  _446
REMARK  181  A    between atoms: _446  and  _447
REMARK  182  A    between atoms: _449  and  _451
REMARK  183  A    between atoms: _451  and  _452
REMARK  184  A    between atoms: _455  and  _457
REMARK  185  A    between atoms: _457  and  _458
REMARK  186  A    between atoms: _461  and  _463
REMARK  187  A    between atoms: _463  and  _464
REMARK  188  A    between atoms: _463  and  _466
REMARK  189  A    between atoms: _466  and  _467
REMARK  190  A    between atoms: _467  and  _468
REMARK  191  A    between atoms: _468  and  _469
REMARK  192  A    between atoms: _469  and  _470
REMARK  193  A    between atoms: _474  and  _476
REMARK  194  A    between atoms: _476  and  _477
REMARK  195  A    between atoms: _476  and  _479
REMARK  196  A    between atoms: _479  and  _480
REMARK  197  A    between atoms: _483  and  _485
REMARK  198  A    between atoms: _485  and  _486
REMARK  199  A    between atoms: _485  and  _488
REMARK  200  A    between atoms: _488  and  _489
REMARK  201  A    between atoms: _492  and  _494
REMARK  202  A    between atoms: _494  and  _495
REMARK  203  A    between atoms: _494  and  _497
REMARK  204  A    between atoms: _497  and  _498
REMARK  205  A    between atoms: _501  and  _503
REMARK  206  A    between atoms: _503  and  _504
REMARK  207  A    between atoms: _503  and  _506
REMARK  208  A    between atoms: _506  and  _507
REMARK  209  A    between atoms: _512  and  _514
REMARK  210  A    between atoms: _514  and  _515
REMARK  211  A    between atoms: _514  and  _517
REMARK  212  A    between atoms: _517  and  _518
REMARK  213  A    between atoms: _523  and  _525
REMARK  214  A    between atoms: _525  and  _526
REMARK  215  A    between atoms: _529  and  _531
REMARK  216  A    between atoms: _531  and  _532
REMARK  217  A    between atoms: _531  and  _534
REMARK  218  A    between atoms: _534  and  _535
REMARK  219  A    between atoms: _535  and  _536
REMARK  220  A    between atoms: _539  and  _541
REMARK  221  A    between atoms: _541  and  _542
REMARK  222  A    between atoms: _541  and  _544
REMARK  223  A    between atoms: _544  and  _545
REMARK  224  A    between atoms: _545  and  _546
REMARK  225  A    between atoms: _546  and  _547
REMARK  226  A    between atoms: _547  and  _548
REMARK  227  A    between atoms: _552  and  _554
REMARK  228  A    between atoms: _554  and  _555
REMARK  229  A    between atoms: _554  and  _557
REMARK  230  A    between atoms: _557  and  _558
REMARK  231  A    between atoms: _560  and  _562
REMARK  232  A    between atoms: _562  and  _563
REMARK  233  A    between atoms: _565  and  _567
REMARK  234  A    between atoms: _567  and  _568
REMARK  235  A    between atoms: _567  and  _570
REMARK  236  A    between atoms: _570  and  _571
REMARK  237  A    between atoms: _574  and  _576
REMARK  238  A    between atoms: _576  and  _577
REMARK  239  A    between atoms: _576  and  _579
REMARK  240  A    between atoms: _579  and  _580
REMARK  241  A    between atoms: _580  and  _581
REMARK  242  A    between atoms: _584  and  _586
REMARK  243  A    between atoms: _586  and  _587
REMARK  244  A    between atoms: _586  and  _589
REMARK  245  A    between atoms: _589  and  _590
REMARK  246  A    between atoms: _590  and  _591
REMARK  247  A    between atoms: _591  and  _592
REMARK  248  A    between atoms: _601  and  _603
REMARK  249  A    between atoms: _603  and  _604
REMARK  250  A    between atoms: _603  and  _606
REMARK  251  A    between atoms: _606  and  _607
REMARK  252  A    between atoms: _612  and  _613
REMARK  253  A    between atoms: _615  and  _617
REMARK  254  A    between atoms: _617  and  _618
REMARK  255  A    between atoms: _617  and  _620
REMARK  256  A    between atoms: _620  and  _621
REMARK  257  A    between atoms: _621  and  _622
REMARK  258  A    between atoms: _625  and  _627
REMARK  259  A    between atoms: _627  and  _628
REMARK  260  A    between atoms: _627  and  _630
REMARK  261  A    between atoms: _630  and  _631
REMARK  262  A    between atoms: _634  and  _636
REMARK  263  A    between atoms: _636  and  _637
REMARK  264  A    between atoms: _636  and  _639
REMARK  265  A    between atoms: _639  and  _640
REMARK  266  A    between atoms: _646  and  _648
REMARK  267  A    between atoms: _648  and  _649
REMARK  268  A    between atoms: _648  and  _651
REMARK  269  A    between atoms: _651  and  _652
REMARK  270  A    between atoms: _652  and  _653
REMARK  271  A    between atoms: _658  and  _660
REMARK  272  A    between atoms: _660  and  _661
REMARK  273  A    between atoms: _660  and  _663
REMARK  274  A    between atoms: _666  and  _668
REMARK  275  A    between atoms: _668  and  _669
REMARK  276  A    between atoms: _668  and  _671
REMARK  277  A    between atoms: _671  and  _672
REMARK  278  A    between atoms: _678  and  _680
REMARK  279  A    between atoms: _680  and  _681
REMARK  280  A    between atoms: _680  and  _683
REMARK  281  A    between atoms: _686  and  _688
REMARK  282  A    between atoms: _688  and  _689
REMARK  283  A    between atoms: _688  and  _691
REMARK  284  A    between atoms: _691  and  _692
REMARK  285  A    between atoms: _695  and  _697
REMARK  286  A    between atoms: _697  and  _698
REMARK  287  A    between atoms: _697  and  _700
REMARK  288  A    between atoms: _700  and  _701
REMARK  289  A    between atoms: _706  and  _708
REMARK  290  A    between atoms: _708  and  _709
REMARK  291  A    between atoms: _708  and  _711
REMARK  292  A    between atoms: _711  and  _712
REMARK  293  A    between atoms: _712  and  _713
REMARK  294  A    between atoms: _713  and  _714
REMARK  295  A    between atoms: _714  and  _715
REMARK  296  A    between atoms: _719  and  _721
REMARK  297  A    between atoms: _721  and  _722
REMARK  298  A    between atoms: _724  and  _726
REMARK  299  A    between atoms: _726  and  _727
REMARK  300  A    between atoms: _726  and  _729
REMARK  301  A    between atoms: _729  and  _730
REMARK  302  A    between atoms: _733  and  _735
REMARK  303  A    between atoms: _735  and  _736
REMARK  304  A    between atoms: _735  and  _738
REMARK  305  A    between atoms: _738  and  _739
REMARK  306  A    between atoms: _739  and  _740
REMARK  307  A    between atoms: _745  and  _747
REMARK  308  A    between atoms: _747  and  _748
REMARK  309  A    between atoms: _747  and  _750
REMARK  310  A    between atoms: _750  and  _751
REMARK  311  A    between atoms: _751  and  _752
REMARK  312  A    between atoms: _755  and  _757
REMARK  313  A    between atoms: _757  and  _758
REMARK  314  A    between atoms: _757  and  _760
REMARK  315  A    between atoms: _763  and  _765
REMARK  316  A    between atoms: _765  and  _766
REMARK  317  A    between atoms: _765  and  _768
REMARK  318  A    between atoms: _768  and  _769
REMARK  319  A    between atoms: _769  and  _770
REMARK                            x       y       z     vdW  Elec       q    Type
REMARK                         _______ _______ _______ _____ _____    ______ ____
ROOT
ATOM      1  O   HOH     1       5.736  -6.010 132.215  0.00  0.00    +0.000 OA
ENDROOT
TORSDOF 0
REMARK  Name = ../refined-set-2016/3tmk/3tmk_pocket.pdb
REMARK  319 active torsions:
REMARK  status: ('A' for Active; 'I' for Inactive)
REMARK    1  A    between atoms: _1  and  _3
REMARK    2  A    between atoms: _3  and  _4
REMARK    3  A    between atoms: _3  and  _6
REMARK    4  A    between atoms: _6  and  _7
REMARK    5  A    between atoms: _10  and  _12
REMARK    6  A    between atoms: _12  and  _13
REMARK    7  A    between atoms: _12  and  _15
REMARK    8  A    between atoms: _15  and  _16
REMARK    9  A    between atoms: _16  and  _17
REMARK   10  A    between atoms: _20  and  _22
REMARK   11  A    between atoms: _22  and  _23
REMARK   12  A    between atoms: _25  and  _27
REMARK   13  A    between atoms: _27  and  _28
REMARK   14  A    between atoms: _27  and  _30
REMARK   15  A    between atoms: _30  and  _31
REMARK   16  A    between atoms: _34  and  _36
REMARK   17  A    between atoms: _36  and  _37
REMARK   18  A    between atoms: _36  and  _39
REMARK   19  A    between atoms: _39  and  _40
REMARK   20  A    between atoms: _43  and  _45
REMARK   21  A    between atoms: _45  and  _46
REMARK   22  A    between atoms: _45  and  _48
REMARK   23  A    between atoms: _48  and  _49
REMARK   24  A    between atoms: _49  and  _50
REMARK   25  A    between atoms: _50  and  _51
REMARK   26  A    between atoms: _60  and  _62
REMARK   27  A    between atoms: _62  and  _63
REMARK   28  A    between atoms: _62  and  _65
REMARK   29  A    between atoms: _65  and  _66
REMARK   30  A    between atoms: _69  and  _71
REMARK   31  A    between atoms: _71  and  _72
REMARK   32  A    between atoms: _74  and  _76
REMARK   33  A    between atoms: _76  and  _77
REMARK   34  A    between atoms: _76  and  _79
REMARK   35  A    between atoms: _79  and  _80
REMARK   36  A    between atoms: _80  and  _81
REMARK   37  A    between atoms: _81  and  _82
REMARK   38  A    between atoms: _82  and  _83
REMARK   39  A    between atoms: _87  and  _89
REMARK   40  A    between atoms: _89  and  _90
REMARK   41  A    between atoms: _89  and  _92
REMARK   42  A    between atoms: _92  and  _93
REMARK   43  A    between atoms: _96  and  _98
REMARK   44  A    between atoms: _98  and  _99
REMARK   45  A    between atoms: _98  and  _101
REMARK   46  A    between atoms: _101  and  _102
REMARK   47  A    between atoms: _105  and  _107
REMARK   48  A    between atoms: _107  and  _108
REMARK   49  A    between atoms: _107  and  _110
REMARK   50  A    between atoms: _110  and  _111
REMARK   51  A    between atoms: _111  and  _112
REMARK   52  A    between atoms: _117  and  _119
REMARK   53  A    between atoms: _119  and  _120
REMARK   54  A    between atoms: _119  and  _122
REMARK   55  A    between atoms: _124  and  _126
REMARK   56  A    between atoms: _126  and  _127
REMARK   57  A    between atoms: _126  and  _129
REMARK   58  A    between atoms: _129  and  _130
REMARK   59  A    between atoms: _135  and  _137
REMARK   60  A    between atoms: _137  and  _138
REMARK   61  A    between atoms: _137  and  _140
REMARK   62  A    between atoms: _140  and  _141
REMARK   63  A    between atoms: _144  and  _146
REMARK   64  A    between atoms: _146  and  _147
REMARK   65  A    between atoms: _146  and  _149
REMARK   66  A    between atoms: _149  and  _150
REMARK   67  A    between atoms: _150  and  _151
REMARK   68  A    between atoms: _151  and  _152
REMARK   69  A    between atoms: _152  and  _153
REMARK   70  A    between atoms: _157  and  _159
REMARK   71  A    between atoms: _159  and  _160
REMARK   72  A    between atoms: _159  and  _162
REMARK   73  A    between atoms: _162  and  _163
REMARK   74  A    between atoms: _170  and  _171
REMARK   75  A    between atoms: _176  and  _178
REMARK   76  A    between atoms: _178  and  _179
REMARK   77  A    between atoms: _178  and  _181
REMARK   78  A    between atoms: _181  and  _182
REMARK   79  A    between atoms: _182  and  _183
REMARK   80  A    between atoms: _186  and  _188
REMARK   81  A    between atoms: _188  and  _189
REMARK   82  A    between atoms: _188  and  _191
REMARK   83  A    between atoms: _191  and  _192
REMARK   84  A    between atoms: _192  and  _193
REMARK   85  A    between atoms: _193  and  _194
REMARK   86  A    between atoms: _203  and  _205
REMARK   87  A    between atoms: _205  and  _206
REMARK   88  A    between atoms: _205  and  _208
REMARK   89  A    between atoms: _208  and  _209
REMARK   90  A    between atoms: _212  and  _214
REMARK   91  A    between atoms: _214  and  _215
REMARK   92  A    between atoms: _214  and  _217
REMARK   93  A    between atoms: _217  and  _218
REMARK   94  A    between atoms: _223  and  _225
REMARK   95  A    between atoms: _225  and  _226
REMARK   96  A    between atoms: _225  and  _228
REMARK   97  A    between atoms: _228  and  _229
REMARK   98  A    between atoms: _234  and  _235
REMARK   99  A    between atoms: _237  and  _239
REMARK  100  A    between atoms: _239  and  _240
REMARK  101  A    between atoms: _239  and  _242
REMARK  102  A    between atoms: _242  and  _243
REMARK  103  A    between atoms: _246  and  _248
REMARK  104  A    between atoms: _248  and  _249
REMARK  105  A    between atoms: _248  and  _251
REMARK  106  A    between atoms: _251  and  _252
REMARK  107  A    between atoms: _255  and  _257
REMARK  108  A    between atoms: _257  and  _258
REMARK  109  A    between atoms: _257  and  _260
REMARK  110  A    between atoms: _260  and  _261
REMARK  111  A    between atoms: _264  and  _266
REMARK  112  A    between atoms: _266  and  _267
REMARK  113  A    between atoms: _266  and  _269
REMARK  114  A    between atoms: _269  and  _270
REMARK  115  A    between atoms: _275  and  _277
REMARK  116  A    between atoms: _277  and  _278
REMARK  117  A    between atoms: _277  and  _280
REMARK  118  A    between atoms: _280  and  _281
REMARK  119  A    between atoms: _284  and  _286
REMARK  120  A    between atoms: _286  and  _287
REMARK  121  A    between atoms: _286  and  _289
REMARK  122  A    between atoms: _289  and  _290
REMARK  123  A    between atoms: _296  and  _298
REMARK  124  A    between atoms: _298  and  _299
REMARK  125  A    between atoms: _298  and  _301
REMARK  126  A    between atoms: _301  and  _302
REMARK  127  A    between atoms: _304  and  _306
REMARK  128  A    between atoms: _306  and  _307
REMARK  129  A    between atoms: _310  and  _312
REMARK  130  A    between atoms: _312  and  _313
REMARK  131  A    between atoms: _312  and  _315
REMARK  132  A    between atoms: _315  and  _316
REMARK  133  A    between atoms: _321  and  _323
REMARK  134  A    between atoms: _323  and  _324
REMARK  135  A    between atoms: _323  and  _326
REMARK  136  A    between atoms: _326  and  _327
REMARK  137  A    between atoms: _327  and  _328
REMARK  138  A    between atoms: _328  and  _329
REMARK  139  A    between atoms: _338  and  _340
REMARK  140  A    between atoms: _340  and  _341
REMARK  141  A    between atoms: _340  and  _343
REMARK  142  A    between atoms: _343  and  _344
REMARK  143  A    between atoms: _347  and  _349
REMARK  144  A    between atoms: _349  and  _350
REMARK  145  A    between atoms: _349  and  _352
REMARK  146  A    between atoms: _352  and  _353
REMARK  147  A    between atoms: _353  and  _354
REMARK  148  A    between atoms: _354  and  _355
REMARK  149  A    between atoms: _364  and  _366
REMARK  150  A    between atoms: _366  and  _367
REMARK  151  A    between atoms: _366  and  _369
REMARK  152  A    between atoms: _369  and  _370
REMARK  153  A    between atoms: _375  and  _376
REMARK  154  A    between atoms: _378  and  _380
REMARK  155  A    between atoms: _380  and  _381
REMARK  156  A    between atoms: _380  and  _383
REMARK  157  A    between atoms: _386  and  _388
REMARK  158  A    between atoms: _388  and  _389
REMARK  159  A    between atoms: _388  and  _391
REMARK  160  A    between atoms: _391  and  _392
REMARK  161  A    between atoms: _397  and  _398
REMARK  162  A    between atoms: _400  and  _402
REMARK  163  A    between atoms: _402  and  _403
REMARK  164  A    between atoms: _402  and  _405
REMARK  165  A    between atoms: _405  and  _406
REMARK  166  A    between atoms: _408  and  _410
REMARK  167  A    between atoms: _410  and  _411
REMARK  168  A    between atoms: _413  and  _415
REMARK  169  A    between atoms: _415  and  _416
REMARK  170  A    between atoms: _415  and  _418
REMARK  171  A    between atoms: _421  and  _423
REMARK  172  A    between atoms: _423  and  _424
REMARK  173  A    between atoms: _427  and  _429
REMARK  174  A    between atoms: _429  and  _430
REMARK  175  A    between atoms: _429  and  _432
REMARK  176  A    between atoms: _432  and  _433
REMARK  177  A    between atoms: _438  and  _439
REMARK  178  A    between atoms: _441  and  _443
REMARK  179  A    between atoms: _443  and  _444
REMARK  180  A    between atoms: _443  and  _446
REMARK  181  A    between atoms: _446  and  _447
REMARK  182  A    between atoms: _449  and  _451
REMARK  183  A    between atoms: _451  and  _452
REMARK  184  A    between atoms: _455  and  _457
REMARK  185  A    between atoms: _457  and  _458
REMARK  186  A    between atoms: _461  and  _463
REMARK  187  A    between atoms: _463  and  _464
REMARK  188  A    between atoms: _463  and  _466
REMARK  189  A    between atoms: _466  and  _467
REMARK  190  A    between atoms: _467  and  _468
REMARK  191  A    between atoms: _468  and  _469
REMARK  192  A    between atoms: _469  and  _470
REMARK  193  A    between atoms: _474  and  _476
REMARK  194  A    between atoms: _476  and  _477
REMARK  195  A    between atoms: _476  and  _479
REMARK  196  A    between atoms: _479  and  _480
REMARK  197  A    between atoms: _483  and  _485
REMARK  198  A    between atoms: _485  and  _486
REMARK  199  A    between atoms: _485  and  _488
REMARK  200  A    between atoms: _488  and  _489
REMARK  201  A    between atoms: _492  and  _494
REMARK  202  A    between atoms: _494  and  _495
REMARK  203  A    between atoms: _494  and  _497
REMARK  204  A    between atoms: _497  and  _498
REMARK  205  A    between atoms: _501  and  _503
REMARK  206  A    between atoms: _503  and  _504
REMARK  207  A    between atoms: _503  and  _506
REMARK  208  A    between atoms: _506  and  _507
REMARK  209  A    between atoms: _512  and  _514
REMARK  210  A    between atoms: _514  and  _515
REMARK  211  A    between atoms: _514  and  _517
REMARK  212  A    between atoms: _517  and  _518
REMARK  213  A    between atoms: _523  and  _525
REMARK  214  A    between atoms: _525  and  _526
REMARK  215  A    between atoms: _529  and  _531
REMARK  216  A    between atoms: _531  and  _532
REMARK  217  A    between atoms: _531  and  _534
REMARK  218  A    between atoms: _534  and  _535
REMARK  219  A    between atoms: _535  and  _536
REMARK  220  A    between atoms: _539  and  _541
REMARK  221  A    between atoms: _541  and  _542
REMARK  222  A    between atoms: _541  and  _544
REMARK  223  A    between atoms: _544  and  _545
REMARK  224  A    between atoms: _545  and  _546
REMARK  225  A    between atoms: _546  and  _547
REMARK  226  A    between atoms: _547  and  _548
REMARK  227  A    between atoms: _552  and  _554
REMARK  228  A    between atoms: _554  and  _555
REMARK  229  A    between atoms: _554  and  _557
REMARK  230  A    between atoms: _557  and  _558
REMARK  231  A    between atoms: _560  and  _562
REMARK  232  A    between atoms: _562  and  _563
REMARK  233  A    between atoms: _565  and  _567
REMARK  234  A    between atoms: _567  and  _568
REMARK  235  A    between atoms: _567  and  _570
REMARK  236  A    between atoms: _570  and  _571
REMARK  237  A    between atoms: _574  and  _576
REMARK  238  A    between atoms: _576  and  _577
REMARK  239  A    between atoms: _576  and  _579
REMARK  240  A    between atoms: _579  and  _580
REMARK  241  A    between atoms: _580  and  _581
REMARK  242  A    between atoms: _584  and  _586
REMARK  243  A    between atoms: _586  and  _587
REMARK  244  A    between atoms: _586  and  _589
REMARK  245  A    between atoms: _589  and  _590
REMARK  246  A    between atoms: _590  and  _591
REMARK  247  A    between atoms: _591  and  _592
REMARK  248  A    between atoms: _601  and  _603
REMARK  249  A    between atoms: _603  and  _604
REMARK  250  A    between atoms: _603  and  _606
REMARK  251  A    between atoms: _606  and  _607
REMARK  252  A    between atoms: _612  and  _613
REMARK  253  A    between atoms: _615  and  _617
REMARK  254  A    between atoms: _617  and  _618
REMARK  255  A    between atoms: _617  and  _620
REMARK  256  A    between atoms: _620  and  _621
REMARK  257  A    between atoms: _621  and  _622
REMARK  258  A    between atoms: _625  and  _627
REMARK  259  A    between atoms: _627  and  _628
REMARK  260  A    between atoms: _627  and  _630
REMARK  261  A    between atoms: _630  and  _631
REMARK  262  A    between atoms: _634  and  _636
REMARK  263  A    between atoms: _636  and  _637
REMARK  264  A    between atoms: _636  and  _639
REMARK  265  A    between atoms: _639  and  _640
REMARK  266  A    between atoms: _646  and  _648
REMARK  267  A    between atoms: _648  and  _649
REMARK  268  A    between atoms: _648  and  _651
REMARK  269  A    between atoms: _651  and  _652
REMARK  270  A    between atoms: _652  and  _653
REMARK  271  A    between atoms: _658  and  _660
REMARK  272  A    between atoms: _660  and  _661
REMARK  273  A    between atoms: _660  and  _663
REMARK  274  A    between atoms: _666  and  _668
REMARK  275  A    between atoms: _668  and  _669
REMARK  276  A    between atoms: _668  and  _671
REMARK  277  A    between atoms: _671  and  _672
REMARK  278  A    between atoms: _678  and  _680
REMARK  279  A    between atoms: _680  and  _681
REMARK  280  A    between atoms: _680  and  _683
REMARK  281  A    between atoms: _686  and  _688
REMARK  282  A    between atoms: _688  and  _689
REMARK  283  A    between atoms: _688  and  _691
REMARK  284  A    between atoms: _691  and  _692
REMARK  285  A    between atoms: _695  and  _697
REMARK  286  A    between atoms: _697  and  _698
REMARK  287  A    between atoms: _697  and  _700
REMARK  288  A    between atoms: _700  and  _701
REMARK  289  A    between atoms: _706  and  _708
REMARK  290  A    between atoms: _708  and  _709
REMARK  291  A    between atoms: _708  and  _711
REMARK  292  A    between atoms: _711  and  _712
REMARK  293  A    between atoms: _712  and  _713
REMARK  294  A    between atoms: _713  and  _714
REMARK  295  A    between atoms: _714  and  _715
REMARK  296  A    between atoms: _719  and  _721
REMARK  297  A    between atoms: _721  and  _722
REMARK  298  A    between atoms: _724  and  _726
REMARK  299  A    between atoms: _726  and  _727
REMARK  300  A    between atoms: _726  and  _729
REMARK  301  A    between atoms: _729  and  _730
REMARK  302  A    between atoms: _733  and  _735
REMARK  303  A    between atoms: _735  and  _736
REMARK  304  A    between atoms: _735  and  _738
REMARK  305  A    between atoms: _738  and  _739
REMARK  306  A    between atoms: _739  and  _740
REMARK  307  A    between atoms: _745  and  _747
REMARK  308  A    between atoms: _747  and  _748
REMARK  309  A    between atoms: _747  and  _750
REMARK  310  A    between atoms: _750  and  _751
REMARK  311  A    between atoms: _751  and  _752
REMARK  312  A    between atoms: _755  and  _757
REMARK  313  A    between atoms: _757  and  _758
REMARK  314  A    between atoms: _757  and  _760
REMARK  315  A    between atoms: _763  and  _765
REMARK  316  A    between atoms: _765  and  _766
REMARK  317  A    between atoms: _765  and  _768
REMARK  318  A    between atoms: _768  and  _769
REMARK  319  A    between atoms: _769  and  _770
REMARK                            x       y       z     vdW  Elec       q    Type
REMARK                         _______ _______ _______ _____ _____    ______ ____
ROOT
ATOM      1  O   HOH     1       5.174  -4.625 135.765  0.00  0.00    +0.000 OA
ENDROOT
TORSDOF 0
REMARK  Name = ../refined-set-2016/3tmk/3tmk_pocket.pdb
REMARK  319 active torsions:
REMARK  status: ('A' for Active; 'I' for Inactive)
REMARK    1  A    between atoms: _1  and  _3
REMARK    2  A    between atoms: _3  and  _4
REMARK    3  A    between atoms: _3  and  _6
REMARK    4  A    between atoms: _6  and  _7
REMARK    5  A    between atoms: _10  and  _12
REMARK    6  A    between atoms: _12  and  _13
REMARK    7  A    between atoms: _12  and  _15
REMARK    8  A    between atoms: _15  and  _16
REMARK    9  A    between atoms: _16  and  _17
REMARK   10  A    between atoms: _20  and  _22
REMARK   11  A    between atoms: _22  and  _23
REMARK   12  A    between atoms: _25  and  _27
REMARK   13  A    between atoms: _27  and  _28
REMARK   14  A    between atoms: _27  and  _30
REMARK   15  A    between atoms: _30  and  _31
REMARK   16  A    between atoms: _34  and  _36
REMARK   17  A    between atoms: _36  and  _37
REMARK   18  A    between atoms: _36  and  _39
REMARK   19  A    between atoms: _39  and  _40
REMARK   20  A    between atoms: _43  and  _45
REMARK   21  A    between atoms: _45  and  _46
REMARK   22  A    between atoms: _45  and  _48
REMARK   23  A    between atoms: _48  and  _49
REMARK   24  A    between atoms: _49  and  _50
REMARK   25  A    between atoms: _50  and  _51
REMARK   26  A    between atoms: _60  and  _62
REMARK   27  A    between atoms: _62  and  _63
REMARK   28  A    between atoms: _62  and  _65
REMARK   29  A    between atoms: _65  and  _66
REMARK   30  A    between atoms: _69  and  _71
REMARK   31  A    between atoms: _71  and  _72
REMARK   32  A    between atoms: _74  and  _76
REMARK   33  A    between atoms: _76  and  _77
REMARK   34  A    between atoms: _76  and  _79
REMARK   35  A    between atoms: _79  and  _80
REMARK   36  A    between atoms: _80  and  _81
REMARK   37  A    between atoms: _81  and  _82
REMARK   38  A    between atoms: _82  and  _83
REMARK   39  A    between atoms: _87  and  _89
REMARK   40  A    between atoms: _89  and  _90
REMARK   41  A    between atoms: _89  and  _92
REMARK   42  A    between atoms: _92  and  _93
REMARK   43  A    between atoms: _96  and  _98
REMARK   44  A    between atoms: _98  and  _99
REMARK   45  A    between atoms: _98  and  _101
REMARK   46  A    between atoms: _101  and  _102
REMARK   47  A    between atoms: _105  and  _107
REMARK   48  A    between atoms: _107  and  _108
REMARK   49  A    between atoms: _107  and  _110
REMARK   50  A    between atoms: _110  and  _111
REMARK   51  A    between atoms: _111  and  _112
REMARK   52  A    between atoms: _117  and  _119
REMARK   53  A    between atoms: _119  and  _120
REMARK   54  A    between atoms: _119  and  _122
REMARK   55  A    between atoms: _124  and  _126
REMARK   56  A    between atoms: _126  and  _127
REMARK   57  A    between atoms: _126  and  _129
REMARK   58  A    between atoms: _129  and  _130
REMARK   59  A    between atoms: _135  and  _137
REMARK   60  A    between atoms: _137  and  _138
REMARK   61  A    between atoms: _137  and  _140
REMARK   62  A    between atoms: _140  and  _141
REMARK   63  A    between atoms: _144  and  _146
REMARK   64  A    between atoms: _146  and  _147
REMARK   65  A    between atoms: _146  and  _149
REMARK   66  A    between atoms: _149  and  _150
REMARK   67  A    between atoms: _150  and  _151
REMARK   68  A    between atoms: _151  and  _152
REMARK   69  A    between atoms: _152  and  _153
REMARK   70  A    between atoms: _157  and  _159
REMARK   71  A    between atoms: _159  and  _160
REMARK   72  A    between atoms: _159  and  _162
REMARK   73  A    between atoms: _162  and  _163
REMARK   74  A    between atoms: _170  and  _171
REMARK   75  A    between atoms: _176  and  _178
REMARK   76  A    between atoms: _178  and  _179
REMARK   77  A    between atoms: _178  and  _181
REMARK   78  A    between atoms: _181  and  _182
REMARK   79  A    between atoms: _182  and  _183
REMARK   80  A    between atoms: _186  and  _188
REMARK   81  A    between atoms: _188  and  _189
REMARK   82  A    between atoms: _188  and  _191
REMARK   83  A    between atoms: _191  and  _192
REMARK   84  A    between atoms: _192  and  _193
REMARK   85  A    between atoms: _193  and  _194
REMARK   86  A    between atoms: _203  and  _205
REMARK   87  A    between atoms: _205  and  _206
REMARK   88  A    between atoms: _205  and  _208
REMARK   89  A    between atoms: _208  and  _209
REMARK   90  A    between atoms: _212  and  _214
REMARK   91  A    between atoms: _214  and  _215
REMARK   92  A    between atoms: _214  and  _217
REMARK   93  A    between atoms: _217  and  _218
REMARK   94  A    between atoms: _223  and  _225
REMARK   95  A    between atoms: _225  and  _226
REMARK   96  A    between atoms: _225  and  _228
REMARK   97  A    between atoms: _228  and  _229
REMARK   98  A    between atoms: _234  and  _235
REMARK   99  A    between atoms: _237  and  _239
REMARK  100  A    between atoms: _239  and  _240
REMARK  101  A    between atoms: _239  and  _242
REMARK  102  A    between atoms: _242  and  _243
REMARK  103  A    between atoms: _246  and  _248
REMARK  104  A    between atoms: _248  and  _249
REMARK  105  A    between atoms: _248  and  _251
REMARK  106  A    between atoms: _251  and  _252
REMARK  107  A    between atoms: _255  and  _257
REMARK  108  A    between atoms: _257  and  _258
REMARK  109  A    between atoms: _257  and  _260
REMARK  110  A    between atoms: _260  and  _261
REMARK  111  A    between atoms: _264  and  _266
REMARK  112  A    between atoms: _266  and  _267
REMARK  113  A    between atoms: _266  and  _269
REMARK  114  A    between atoms: _269  and  _270
REMARK  115  A    between atoms: _275  and  _277
REMARK  116  A    between atoms: _277  and  _278
REMARK  117  A    between atoms: _277  and  _280
REMARK  118  A    between atoms: _280  and  _281
REMARK  119  A    between atoms: _284  and  _286
REMARK  120  A    between atoms: _286  and  _287
REMARK  121  A    between atoms: _286  and  _289
REMARK  122  A    between atoms: _289  and  _290
REMARK  123  A    between atoms: _296  and  _298
REMARK  124  A    between atoms: _298  and  _299
REMARK  125  A    between atoms: _298  and  _301
REMARK  126  A    between atoms: _301  and  _302
REMARK  127  A    between atoms: _304  and  _306
REMARK  128  A    between atoms: _306  and  _307
REMARK  129  A    between atoms: _310  and  _312
REMARK  130  A    between atoms: _312  and  _313
REMARK  131  A    between atoms: _312  and  _315
REMARK  132  A    between atoms: _315  and  _316
REMARK  133  A    between atoms: _321  and  _323
REMARK  134  A    between atoms: _323  and  _324
REMARK  135  A    between atoms: _323  and  _326
REMARK  136  A    between atoms: _326  and  _327
REMARK  137  A    between atoms: _327  and  _328
REMARK  138  A    between atoms: _328  and  _329
REMARK  139  A    between atoms: _338  and  _340
REMARK  140  A    between atoms: _340  and  _341
REMARK  141  A    between atoms: _340  and  _343
REMARK  142  A    between atoms: _343  and  _344
REMARK  143  A    between atoms: _347  and  _349
REMARK  144  A    between atoms: _349  and  _350
REMARK  145  A    between atoms: _349  and  _352
REMARK  146  A    between atoms: _352  and  _353
REMARK  147  A    between atoms: _353  and  _354
REMARK  148  A    between atoms: _354  and  _355
REMARK  149  A    between atoms: _364  and  _366
REMARK  150  A    between atoms: _366  and  _367
REMARK  151  A    between atoms: _366  and  _369
REMARK  152  A    between atoms: _369  and  _370
REMARK  153  A    between atoms: _375  and  _376
REMARK  154  A    between atoms: _378  and  _380
REMARK  155  A    between atoms: _380  and  _381
REMARK  156  A    between atoms: _380  and  _383
REMARK  157  A    between atoms: _386  and  _388
REMARK  158  A    between atoms: _388  and  _389
REMARK  159  A    between atoms: _388  and  _391
REMARK  160  A    between atoms: _391  and  _392
REMARK  161  A    between atoms: _397  and  _398
REMARK  162  A    between atoms: _400  and  _402
REMARK  163  A    between atoms: _402  and  _403
REMARK  164  A    between atoms: _402  and  _405
REMARK  165  A    between atoms: _405  and  _406
REMARK  166  A    between atoms: _408  and  _410
REMARK  167  A    between atoms: _410  and  _411
REMARK  168  A    between atoms: _413  and  _415
REMARK  169  A    between atoms: _415  and  _416
REMARK  170  A    between atoms: _415  and  _418
REMARK  171  A    between atoms: _421  and  _423
REMARK  172  A    between atoms: _423  and  _424
REMARK  173  A    between atoms: _427  and  _429
REMARK  174  A    between atoms: _429  and  _430
REMARK  175  A    between atoms: _429  and  _432
REMARK  176  A    between atoms: _432  and  _433
REMARK  177  A    between atoms: _438  and  _439
REMARK  178  A    between atoms: _441  and  _443
REMARK  179  A    between atoms: _443  and  _444
REMARK  180  A    between atoms: _443  and  _446
REMARK  181  A    between atoms: _446  and  _447
REMARK  182  A    between atoms: _449  and  _451
REMARK  183  A    between atoms: _451  and  _452
REMARK  184  A    between atoms: _455  and  _457
REMARK  185  A    between atoms: _457  and  _458
REMARK  186  A    between atoms: _461  and  _463
REMARK  187  A    between atoms: _463  and  _464
REMARK  188  A    between atoms: _463  and  _466
REMARK  189  A    between atoms: _466  and  _467
REMARK  190  A    between atoms: _467  and  _468
REMARK  191  A    between atoms: _468  and  _469
REMARK  192  A    between atoms: _469  and  _470
REMARK  193  A    between atoms: _474  and  _476
REMARK  194  A    between atoms: _476  and  _477
REMARK  195  A    between atoms: _476  and  _479
REMARK  196  A    between atoms: _479  and  _480
REMARK  197  A    between atoms: _483  and  _485
REMARK  198  A    between atoms: _485  and  _486
REMARK  199  A    between atoms: _485  and  _488
REMARK  200  A    between atoms: _488  and  _489
REMARK  201  A    between atoms: _492  and  _494
REMARK  202  A    between atoms: _494  and  _495
REMARK  203  A    between atoms: _494  and  _497
REMARK  204  A    between atoms: _497  and  _498
REMARK  205  A    between atoms: _501  and  _503
REMARK  206  A    between atoms: _503  and  _504
REMARK  207  A    between atoms: _503  and  _506
REMARK  208  A    between atoms: _506  and  _507
REMARK  209  A    between atoms: _512  and  _514
REMARK  210  A    between atoms: _514  and  _515
REMARK  211  A    between atoms: _514  and  _517
REMARK  212  A    between atoms: _517  and  _518
REMARK  213  A    between atoms: _523  and  _525
REMARK  214  A    between atoms: _525  and  _526
REMARK  215  A    between atoms: _529  and  _531
REMARK  216  A    between atoms: _531  and  _532
REMARK  217  A    between atoms: _531  and  _534
REMARK  218  A    between atoms: _534  and  _535
REMARK  219  A    between atoms: _535  and  _536
REMARK  220  A    between atoms: _539  and  _541
REMARK  221  A    between atoms: _541  and  _542
REMARK  222  A    between atoms: _541  and  _544
REMARK  223  A    between atoms: _544  and  _545
REMARK  224  A    between atoms: _545  and  _546
REMARK  225  A    between atoms: _546  and  _547
REMARK  226  A    between atoms: _547  and  _548
REMARK  227  A    between atoms: _552  and  _554
REMARK  228  A    between atoms: _554  and  _555
REMARK  229  A    between atoms: _554  and  _557
REMARK  230  A    between atoms: _557  and  _558
REMARK  231  A    between atoms: _560  and  _562
REMARK  232  A    between atoms: _562  and  _563
REMARK  233  A    between atoms: _565  and  _567
REMARK  234  A    between atoms: _567  and  _568
REMARK  235  A    between atoms: _567  and  _570
REMARK  236  A    between atoms: _570  and  _571
REMARK  237  A    between atoms: _574  and  _576
REMARK  238  A    between atoms: _576  and  _577
REMARK  239  A    between atoms: _576  and  _579
REMARK  240  A    between atoms: _579  and  _580
REMARK  241  A    between atoms: _580  and  _581
REMARK  242  A    between atoms: _584  and  _586
REMARK  243  A    between atoms: _586  and  _587
REMARK  244  A    between atoms: _586  and  _589
REMARK  245  A    between atoms: _589  and  _590
REMARK  246  A    between atoms: _590  and  _591
REMARK  247  A    between atoms: _591  and  _592
REMARK  248  A    between atoms: _601  and  _603
REMARK  249  A    between atoms: _603  and  _604
REMARK  250  A    between atoms: _603  and  _606
REMARK  251  A    between atoms: _606  and  _607
REMARK  252  A    between atoms: _612  and  _613
REMARK  253  A    between atoms: _615  and  _617
REMARK  254  A    between atoms: _617  and  _618
REMARK  255  A    between atoms: _617  and  _620
REMARK  256  A    between atoms: _620  and  _621
REMARK  257  A    between atoms: _621  and  _622
REMARK  258  A    between atoms: _625  and  _627
REMARK  259  A    between atoms: _627  and  _628
REMARK  260  A    between atoms: _627  and  _630
REMARK  261  A    between atoms: _630  and  _631
REMARK  262  A    between atoms: _634  and  _636
REMARK  263  A    between atoms: _636  and  _637
REMARK  264  A    between atoms: _636  and  _639
REMARK  265  A    between atoms: _639  and  _640
REMARK  266  A    between atoms: _646  and  _648
REMARK  267  A    between atoms: _648  and  _649
REMARK  268  A    between atoms: _648  and  _651
REMARK  269  A    between atoms: _651  and  _652
REMARK  270  A    between atoms: _652  and  _653
REMARK  271  A    between atoms: _658  and  _660
REMARK  272  A    between atoms: _660  and  _661
REMARK  273  A    between atoms: _660  and  _663
REMARK  274  A    between atoms: _666  and  _668
REMARK  275  A    between atoms: _668  and  _669
REMARK  276  A    between atoms: _668  and  _671
REMARK  277  A    between atoms: _671  and  _672
REMARK  278  A    between atoms: _678  and  _680
REMARK  279  A    between atoms: _680  and  _681
REMARK  280  A    between atoms: _680  and  _683
REMARK  281  A    between atoms: _686  and  _688
REMARK  282  A    between atoms: _688  and  _689
REMARK  283  A    between atoms: _688  and  _691
REMARK  284  A    between atoms: _691  and  _692
REMARK  285  A    between atoms: _695  and  _697
REMARK  286  A    between atoms: _697  and  _698
REMARK  287  A    between atoms: _697  and  _700
REMARK  288  A    between atoms: _700  and  _701
REMARK  289  A    between atoms: _706  and  _708
REMARK  290  A    between atoms: _708  and  _709
REMARK  291  A    between atoms: _708  and  _711
REMARK  292  A    between atoms: _711  and  _712
REMARK  293  A    between atoms: _712  and  _713
REMARK  294  A    between atoms: _713  and  _714
REMARK  295  A    between atoms: _714  and  _715
REMARK  296  A    between atoms: _719  and  _721
REMARK  297  A    between atoms: _721  and  _722
REMARK  298  A    between atoms: _724  and  _726
REMARK  299  A    between atoms: _726  and  _727
REMARK  300  A    between atoms: _726  and  _729
REMARK  301  A    between atoms: _729  and  _730
REMARK  302  A    between atoms: _733  and  _735
REMARK  303  A    between atoms: _735  and  _736
REMARK  304  A    between atoms: _735  and  _738
REMARK  305  A    between atoms: _738  and  _739
REMARK  306  A    between atoms: _739  and  _740
REMARK  307  A    between atoms: _745  and  _747
REMARK  308  A    between atoms: _747  and  _748
REMARK  309  A    between atoms: _747  and  _750
REMARK  310  A    between atoms: _750  and  _751
REMARK  311  A    between atoms: _751  and  _752
REMARK  312  A    between atoms: _755  and  _757
REMARK  313  A    between atoms: _757  and  _758
REMARK  314  A    between atoms: _757  and  _760
REMARK  315  A    between atoms: _763  and  _765
REMARK  316  A    between atoms: _765  and  _766
REMARK  317  A    between atoms: _765  and  _768
REMARK  318  A    between atoms: _768  and  _769
REMARK  319  A    between atoms: _769  and  _770
REMARK                            x       y       z     vdW  Elec       q    Type
REMARK                         _______ _______ _______ _____ _____    ______ ____
ROOT
ATOM      1  O   HOH     1       7.251  -2.058 135.860  0.00  0.00    +0.000 OA
ENDROOT
TORSDOF 0
REMARK  Name = ../refined-set-2016/3tmk/3tmk_pocket.pdb
REMARK  319 active torsions:
REMARK  status: ('A' for Active; 'I' for Inactive)
REMARK    1  A    between atoms: _1  and  _3
REMARK    2  A    between atoms: _3  and  _4
REMARK    3  A    between atoms: _3  and  _6
REMARK    4  A    between atoms: _6  and  _7
REMARK    5  A    between atoms: _10  and  _12
REMARK    6  A    between atoms: _12  and  _13
REMARK    7  A    between atoms: _12  and  _15
REMARK    8  A    between atoms: _15  and  _16
REMARK    9  A    between atoms: _16  and  _17
REMARK   10  A    between atoms: _20  and  _22
REMARK   11  A    between atoms: _22  and  _23
REMARK   12  A    between atoms: _25  and  _27
REMARK   13  A    between atoms: _27  and  _28
REMARK   14  A    between atoms: _27  and  _30
REMARK   15  A    between atoms: _30  and  _31
REMARK   16  A    between atoms: _34  and  _36
REMARK   17  A    between atoms: _36  and  _37
REMARK   18  A    between atoms: _36  and  _39
REMARK   19  A    between atoms: _39  and  _40
REMARK   20  A    between atoms: _43  and  _45
REMARK   21  A    between atoms: _45  and  _46
REMARK   22  A    between atoms: _45  and  _48
REMARK   23  A    between atoms: _48  and  _49
REMARK   24  A    between atoms: _49  and  _50
REMARK   25  A    between atoms: _50  and  _51
REMARK   26  A    between atoms: _60  and  _62
REMARK   27  A    between atoms: _62  and  _63
REMARK   28  A    between atoms: _62  and  _65
REMARK   29  A    between atoms: _65  and  _66
REMARK   30  A    between atoms: _69  and  _71
REMARK   31  A    between atoms: _71  and  _72
REMARK   32  A    between atoms: _74  and  _76
REMARK   33  A    between atoms: _76  and  _77
REMARK   34  A    between atoms: _76  and  _79
REMARK   35  A    between atoms: _79  and  _80
REMARK   36  A    between atoms: _80  and  _81
REMARK   37  A    between atoms: _81  and  _82
REMARK   38  A    between atoms: _82  and  _83
REMARK   39  A    between atoms: _87  and  _89
REMARK   40  A    between atoms: _89  and  _90
REMARK   41  A    between atoms: _89  and  _92
REMARK   42  A    between atoms: _92  and  _93
REMARK   43  A    between atoms: _96  and  _98
REMARK   44  A    between atoms: _98  and  _99
REMARK   45  A    between atoms: _98  and  _101
REMARK   46  A    between atoms: _101  and  _102
REMARK   47  A    between atoms: _105  and  _107
REMARK   48  A    between atoms: _107  and  _108
REMARK   49  A    between atoms: _107  and  _110
REMARK   50  A    between atoms: _110  and  _111
REMARK   51  A    between atoms: _111  and  _112
REMARK   52  A    between atoms: _117  and  _119
REMARK   53  A    between atoms: _119  and  _120
REMARK   54  A    between atoms: _119  and  _122
REMARK   55  A    between atoms: _124  and  _126
REMARK   56  A    between atoms: _126  and  _127
REMARK   57  A    between atoms: _126  and  _129
REMARK   58  A    between atoms: _129  and  _130
REMARK   59  A    between atoms: _135  and  _137
REMARK   60  A    between atoms: _137  and  _138
REMARK   61  A    between atoms: _137  and  _140
REMARK   62  A    between atoms: _140  and  _141
REMARK   63  A    between atoms: _144  and  _146
REMARK   64  A    between atoms: _146  and  _147
REMARK   65  A    between atoms: _146  and  _149
REMARK   66  A    between atoms: _149  and  _150
REMARK   67  A    between atoms: _150  and  _151
REMARK   68  A    between atoms: _151  and  _152
REMARK   69  A    between atoms: _152  and  _153
REMARK   70  A    between atoms: _157  and  _159
REMARK   71  A    between atoms: _159  and  _160
REMARK   72  A    between atoms: _159  and  _162
REMARK   73  A    between atoms: _162  and  _163
REMARK   74  A    between atoms: _170  and  _171
REMARK   75  A    between atoms: _176  and  _178
REMARK   76  A    between atoms: _178  and  _179
REMARK   77  A    between atoms: _178  and  _181
REMARK   78  A    between atoms: _181  and  _182
REMARK   79  A    between atoms: _182  and  _183
REMARK   80  A    between atoms: _186  and  _188
REMARK   81  A    between atoms: _188  and  _189
REMARK   82  A    between atoms: _188  and  _191
REMARK   83  A    between atoms: _191  and  _192
REMARK   84  A    between atoms: _192  and  _193
REMARK   85  A    between atoms: _193  and  _194
REMARK   86  A    between atoms: _203  and  _205
REMARK   87  A    between atoms: _205  and  _206
REMARK   88  A    between atoms: _205  and  _208
REMARK   89  A    between atoms: _208  and  _209
REMARK   90  A    between atoms: _212  and  _214
REMARK   91  A    between atoms: _214  and  _215
REMARK   92  A    between atoms: _214  and  _217
REMARK   93  A    between atoms: _217  and  _218
REMARK   94  A    between atoms: _223  and  _225
REMARK   95  A    between atoms: _225  and  _226
REMARK   96  A    between atoms: _225  and  _228
REMARK   97  A    between atoms: _228  and  _229
REMARK   98  A    between atoms: _234  and  _235
REMARK   99  A    between atoms: _237  and  _239
REMARK  100  A    between atoms: _239  and  _240
REMARK  101  A    between atoms: _239  and  _242
REMARK  102  A    between atoms: _242  and  _243
REMARK  103  A    between atoms: _246  and  _248
REMARK  104  A    between atoms: _248  and  _249
REMARK  105  A    between atoms: _248  and  _251
REMARK  106  A    between atoms: _251  and  _252
REMARK  107  A    between atoms: _255  and  _257
REMARK  108  A    between atoms: _257  and  _258
REMARK  109  A    between atoms: _257  and  _260
REMARK  110  A    between atoms: _260  and  _261
REMARK  111  A    between atoms: _264  and  _266
REMARK  112  A    between atoms: _266  and  _267
REMARK  113  A    between atoms: _266  and  _269
REMARK  114  A    between atoms: _269  and  _270
REMARK  115  A    between atoms: _275  and  _277
REMARK  116  A    between atoms: _277  and  _278
REMARK  117  A    between atoms: _277  and  _280
REMARK  118  A    between atoms: _280  and  _281
REMARK  119  A    between atoms: _284  and  _286
REMARK  120  A    between atoms: _286  and  _287
REMARK  121  A    between atoms: _286  and  _289
REMARK  122  A    between atoms: _289  and  _290
REMARK  123  A    between atoms: _296  and  _298
REMARK  124  A    between atoms: _298  and  _299
REMARK  125  A    between atoms: _298  and  _301
REMARK  126  A    between atoms: _301  and  _302
REMARK  127  A    between atoms: _304  and  _306
REMARK  128  A    between atoms: _306  and  _307
REMARK  129  A    between atoms: _310  and  _312
REMARK  130  A    between atoms: _312  and  _313
REMARK  131  A    between atoms: _312  and  _315
REMARK  132  A    between atoms: _315  and  _316
REMARK  133  A    between atoms: _321  and  _323
REMARK  134  A    between atoms: _323  and  _324
REMARK  135  A    between atoms: _323  and  _326
REMARK  136  A    between atoms: _326  and  _327
REMARK  137  A    between atoms: _327  and  _328
REMARK  138  A    between atoms: _328  and  _329
REMARK  139  A    between atoms: _338  and  _340
REMARK  140  A    between atoms: _340  and  _341
REMARK  141  A    between atoms: _340  and  _343
REMARK  142  A    between atoms: _343  and  _344
REMARK  143  A    between atoms: _347  and  _349
REMARK  144  A    between atoms: _349  and  _350
REMARK  145  A    between atoms: _349  and  _352
REMARK  146  A    between atoms: _352  and  _353
REMARK  147  A    between atoms: _353  and  _354
REMARK  148  A    between atoms: _354  and  _355
REMARK  149  A    between atoms: _364  and  _366
REMARK  150  A    between atoms: _366  and  _367
REMARK  151  A    between atoms: _366  and  _369
REMARK  152  A    between atoms: _369  and  _370
REMARK  153  A    between atoms: _375  and  _376
REMARK  154  A    between atoms: _378  and  _380
REMARK  155  A    between atoms: _380  and  _381
REMARK  156  A    between atoms: _380  and  _383
REMARK  157  A    between atoms: _386  and  _388
REMARK  158  A    between atoms: _388  and  _389
REMARK  159  A    between atoms: _388  and  _391
REMARK  160  A    between atoms: _391  and  _392
REMARK  161  A    between atoms: _397  and  _398
REMARK  162  A    between atoms: _400  and  _402
REMARK  163  A    between atoms: _402  and  _403
REMARK  164  A    between atoms: _402  and  _405
REMARK  165  A    between atoms: _405  and  _406
REMARK  166  A    between atoms: _408  and  _410
REMARK  167  A    between atoms: _410  and  _411
REMARK  168  A    between atoms: _413  and  _415
REMARK  169  A    between atoms: _415  and  _416
REMARK  170  A    between atoms: _415  and  _418
REMARK  171  A    between atoms: _421  and  _423
REMARK  172  A    between atoms: _423  and  _424
REMARK  173  A    between atoms: _427  and  _429
REMARK  174  A    between atoms: _429  and  _430
REMARK  175  A    between atoms: _429  and  _432
REMARK  176  A    between atoms: _432  and  _433
REMARK  177  A    between atoms: _438  and  _439
REMARK  178  A    between atoms: _441  and  _443
REMARK  179  A    between atoms: _443  and  _444
REMARK  180  A    between atoms: _443  and  _446
REMARK  181  A    between atoms: _446  and  _447
REMARK  182  A    between atoms: _449  and  _451
REMARK  183  A    between atoms: _451  and  _452
REMARK  184  A    between atoms: _455  and  _457
REMARK  185  A    between atoms: _457  and  _458
REMARK  186  A    between atoms: _461  and  _463
REMARK  187  A    between atoms: _463  and  _464
REMARK  188  A    between atoms: _463  and  _466
REMARK  189  A    between atoms: _466  and  _467
REMARK  190  A    between atoms: _467  and  _468
REMARK  191  A    between atoms: _468  and  _469
REMARK  192  A    between atoms: _469  and  _470
REMARK  193  A    between atoms: _474  and  _476
REMARK  194  A    between atoms: _476  and  _477
REMARK  195  A    between atoms: _476  and  _479
REMARK  196  A    between atoms: _479  and  _480
REMARK  197  A    between atoms: _483  and  _485
REMARK  198  A    between atoms: _485  and  _486
REMARK  199  A    between atoms: _485  and  _488
REMARK  200  A    between atoms: _488  and  _489
REMARK  201  A    between atoms: _492  and  _494
REMARK  202  A    between atoms: _494  and  _495
REMARK  203  A    between atoms: _494  and  _497
REMARK  204  A    between atoms: _497  and  _498
REMARK  205  A    between atoms: _501  and  _503
REMARK  206  A    between atoms: _503  and  _504
REMARK  207  A    between atoms: _503  and  _506
REMARK  208  A    between atoms: _506  and  _507
REMARK  209  A    between atoms: _512  and  _514
REMARK  210  A    between atoms: _514  and  _515
REMARK  211  A    between atoms: _514  and  _517
REMARK  212  A    between atoms: _517  and  _518
REMARK  213  A    between atoms: _523  and  _525
REMARK  214  A    between atoms: _525  and  _526
REMARK  215  A    between atoms: _529  and  _531
REMARK  216  A    between atoms: _531  and  _532
REMARK  217  A    between atoms: _531  and  _534
REMARK  218  A    between atoms: _534  and  _535
REMARK  219  A    between atoms: _535  and  _536
REMARK  220  A    between atoms: _539  and  _541
REMARK  221  A    between atoms: _541  and  _542
REMARK  222  A    between atoms: _541  and  _544
REMARK  223  A    between atoms: _544  and  _545
REMARK  224  A    between atoms: _545  and  _546
REMARK  225  A    between atoms: _546  and  _547
REMARK  226  A    between atoms: _547  and  _548
REMARK  227  A    between atoms: _552  and  _554
REMARK  228  A    between atoms: _554  and  _555
REMARK  229  A    between atoms: _554  and  _557
REMARK  230  A    between atoms: _557  and  _558
REMARK  231  A    between atoms: _560  and  _562
REMARK  232  A    between atoms: _562  and  _563
REMARK  233  A    between atoms: _565  and  _567
REMARK  234  A    between atoms: _567  and  _568
REMARK  235  A    between atoms: _567  and  _570
REMARK  236  A    between atoms: _570  and  _571
REMARK  237  A    between atoms: _574  and  _576
REMARK  238  A    between atoms: _576  and  _577
REMARK  239  A    between atoms: _576  and  _579
REMARK  240  A    between atoms: _579  and  _580
REMARK  241  A    between atoms: _580  and  _581
REMARK  242  A    between atoms: _584  and  _586
REMARK  243  A    between atoms: _586  and  _587
REMARK  244  A    between atoms: _586  and  _589
REMARK  245  A    between atoms: _589  and  _590
REMARK  246  A    between atoms: _590  and  _591
REMARK  247  A    between atoms: _591  and  _592
REMARK  248  A    between atoms: _601  and  _603
REMARK  249  A    between atoms: _603  and  _604
REMARK  250  A    between atoms: _603  and  _606
REMARK  251  A    between atoms: _606  and  _607
REMARK  252  A    between atoms: _612  and  _613
REMARK  253  A    between atoms: _615  and  _617
REMARK  254  A    between atoms: _617  and  _618
REMARK  255  A    between atoms: _617  and  _620
REMARK  256  A    between atoms: _620  and  _621
REMARK  257  A    between atoms: _621  and  _622
REMARK  258  A    between atoms: _625  and  _627
REMARK  259  A    between atoms: _627  and  _628
REMARK  260  A    between atoms: _627  and  _630
REMARK  261  A    between atoms: _630  and  _631
REMARK  262  A    between atoms: _634  and  _636
REMARK  263  A    between atoms: _636  and  _637
REMARK  264  A    between atoms: _636  and  _639
REMARK  265  A    between atoms: _639  and  _640
REMARK  266  A    between atoms: _646  and  _648
REMARK  267  A    between atoms: _648  and  _649
REMARK  268  A    between atoms: _648  and  _651
REMARK  269  A    between atoms: _651  and  _652
REMARK  270  A    between atoms: _652  and  _653
REMARK  271  A    between atoms: _658  and  _660
REMARK  272  A    between atoms: _660  and  _661
REMARK  273  A    between atoms: _660  and  _663
REMARK  274  A    between atoms: _666  and  _668
REMARK  275  A    between atoms: _668  and  _669
REMARK  276  A    between atoms: _668  and  _671
REMARK  277  A    between atoms: _671  and  _672
REMARK  278  A    between atoms: _678  and  _680
REMARK  279  A    between atoms: _680  and  _681
REMARK  280  A    between atoms: _680  and  _683
REMARK  281  A    between atoms: _686  and  _688
REMARK  282  A    between atoms: _688  and  _689
REMARK  283  A    between atoms: _688  and  _691
REMARK  284  A    between atoms: _691  and  _692
REMARK  285  A    between atoms: _695  and  _697
REMARK  286  A    between atoms: _697  and  _698
REMARK  287  A    between atoms: _697  and  _700
REMARK  288  A    between atoms: _700  and  _701
REMARK  289  A    between atoms: _706  and  _708
REMARK  290  A    between atoms: _708  and  _709
REMARK  291  A    between atoms: _708  and  _711
REMARK  292  A    between atoms: _711  and  _712
REMARK  293  A    between atoms: _712  and  _713
REMARK  294  A    between atoms: _713  and  _714
REMARK  295  A    between atoms: _714  and  _715
REMARK  296  A    between atoms: _719  and  _721
REMARK  297  A    between atoms: _721  and  _722
REMARK  298  A    between atoms: _724  and  _726
REMARK  299  A    between atoms: _726  and  _727
REMARK  300  A    between atoms: _726  and  _729
REMARK  301  A    between atoms: _729  and  _730
REMARK  302  A    between atoms: _733  and  _735
REMARK  303  A    between atoms: _735  and  _736
REMARK  304  A    between atoms: _735  and  _738
REMARK  305  A    between atoms: _738  and  _739
REMARK  306  A    between atoms: _739  and  _740
REMARK  307  A    between atoms: _745  and  _747
REMARK  308  A    between atoms: _747  and  _748
REMARK  309  A    between atoms: _747  and  _750
REMARK  310  A    between atoms: _750  and  _751
REMARK  311  A    between atoms: _751  and  _752
REMARK  312  A    between atoms: _755  and  _757
REMARK  313  A    between atoms: _757  and  _758
REMARK  314  A    between atoms: _757  and  _760
REMARK  315  A    between atoms: _763  and  _765
REMARK  316  A    between atoms: _765  and  _766
REMARK  317  A    between atoms: _765  and  _768
REMARK  318  A    between atoms: _768  and  _769
REMARK  319  A    between atoms: _769  and  _770
REMARK                            x       y       z     vdW  Elec       q    Type
REMARK                         _______ _______ _______ _____ _____    ______ ____
ROOT
ATOM      1  O   HOH     1      11.415   0.179 134.900  0.00  0.00    +0.000 OA
ENDROOT
TORSDOF 0
REMARK  Name = ../refined-set-2016/3tmk/3tmk_pocket.pdb
REMARK  319 active torsions:
REMARK  status: ('A' for Active; 'I' for Inactive)
REMARK    1  A    between atoms: _1  and  _3
REMARK    2  A    between atoms: _3  and  _4
REMARK    3  A    between atoms: _3  and  _6
REMARK    4  A    between atoms: _6  and  _7
REMARK    5  A    between atoms: _10  and  _12
REMARK    6  A    between atoms: _12  and  _13
REMARK    7  A    between atoms: _12  and  _15
REMARK    8  A    between atoms: _15  and  _16
REMARK    9  A    between atoms: _16  and  _17
REMARK   10  A    between atoms: _20  and  _22
REMARK   11  A    between atoms: _22  and  _23
REMARK   12  A    between atoms: _25  and  _27
REMARK   13  A    between atoms: _27  and  _28
REMARK   14  A    between atoms: _27  and  _30
REMARK   15  A    between atoms: _30  and  _31
REMARK   16  A    between atoms: _34  and  _36
REMARK   17  A    between atoms: _36  and  _37
REMARK   18  A    between atoms: _36  and  _39
REMARK   19  A    between atoms: _39  and  _40
REMARK   20  A    between atoms: _43  and  _45
REMARK   21  A    between atoms: _45  and  _46
REMARK   22  A    between atoms: _45  and  _48
REMARK   23  A    between atoms: _48  and  _49
REMARK   24  A    between atoms: _49  and  _50
REMARK   25  A    between atoms: _50  and  _51
REMARK   26  A    between atoms: _60  and  _62
REMARK   27  A    between atoms: _62  and  _63
REMARK   28  A    between atoms: _62  and  _65
REMARK   29  A    between atoms: _65  and  _66
REMARK   30  A    between atoms: _69  and  _71
REMARK   31  A    between atoms: _71  and  _72
REMARK   32  A    between atoms: _74  and  _76
REMARK   33  A    between atoms: _76  and  _77
REMARK   34  A    between atoms: _76  and  _79
REMARK   35  A    between atoms: _79  and  _80
REMARK   36  A    between atoms: _80  and  _81
REMARK   37  A    between atoms: _81  and  _82
REMARK   38  A    between atoms: _82  and  _83
REMARK   39  A    between atoms: _87  and  _89
REMARK   40  A    between atoms: _89  and  _90
REMARK   41  A    between atoms: _89  and  _92
REMARK   42  A    between atoms: _92  and  _93
REMARK   43  A    between atoms: _96  and  _98
REMARK   44  A    between atoms: _98  and  _99
REMARK   45  A    between atoms: _98  and  _101
REMARK   46  A    between atoms: _101  and  _102
REMARK   47  A    between atoms: _105  and  _107
REMARK   48  A    between atoms: _107  and  _108
REMARK   49  A    between atoms: _107  and  _110
REMARK   50  A    between atoms: _110  and  _111
REMARK   51  A    between atoms: _111  and  _112
REMARK   52  A    between atoms: _117  and  _119
REMARK   53  A    between atoms: _119  and  _120
REMARK   54  A    between atoms: _119  and  _122
REMARK   55  A    between atoms: _124  and  _126
REMARK   56  A    between atoms: _126  and  _127
REMARK   57  A    between atoms: _126  and  _129
REMARK   58  A    between atoms: _129  and  _130
REMARK   59  A    between atoms: _135  and  _137
REMARK   60  A    between atoms: _137  and  _138
REMARK   61  A    between atoms: _137  and  _140
REMARK   62  A    between atoms: _140  and  _141
REMARK   63  A    between atoms: _144  and  _146
REMARK   64  A    between atoms: _146  and  _147
REMARK   65  A    between atoms: _146  and  _149
REMARK   66  A    between atoms: _149  and  _150
REMARK   67  A    between atoms: _150  and  _151
REMARK   68  A    between atoms: _151  and  _152
REMARK   69  A    between atoms: _152  and  _153
REMARK   70  A    between atoms: _157  and  _159
REMARK   71  A    between atoms: _159  and  _160
REMARK   72  A    between atoms: _159  and  _162
REMARK   73  A    between atoms: _162  and  _163
REMARK   74  A    between atoms: _170  and  _171
REMARK   75  A    between atoms: _176  and  _178
REMARK   76  A    between atoms: _178  and  _179
REMARK   77  A    between atoms: _178  and  _181
REMARK   78  A    between atoms: _181  and  _182
REMARK   79  A    between atoms: _182  and  _183
REMARK   80  A    between atoms: _186  and  _188
REMARK   81  A    between atoms: _188  and  _189
REMARK   82  A    between atoms: _188  and  _191
REMARK   83  A    between atoms: _191  and  _192
REMARK   84  A    between atoms: _192  and  _193
REMARK   85  A    between atoms: _193  and  _194
REMARK   86  A    between atoms: _203  and  _205
REMARK   87  A    between atoms: _205  and  _206
REMARK   88  A    between atoms: _205  and  _208
REMARK   89  A    between atoms: _208  and  _209
REMARK   90  A    between atoms: _212  and  _214
REMARK   91  A    between atoms: _214  and  _215
REMARK   92  A    between atoms: _214  and  _217
REMARK   93  A    between atoms: _217  and  _218
REMARK   94  A    between atoms: _223  and  _225
REMARK   95  A    between atoms: _225  and  _226
REMARK   96  A    between atoms: _225  and  _228
REMARK   97  A    between atoms: _228  and  _229
REMARK   98  A    between atoms: _234  and  _235
REMARK   99  A    between atoms: _237  and  _239
REMARK  100  A    between atoms: _239  and  _240
REMARK  101  A    between atoms: _239  and  _242
REMARK  102  A    between atoms: _242  and  _243
REMARK  103  A    between atoms: _246  and  _248
REMARK  104  A    between atoms: _248  and  _249
REMARK  105  A    between atoms: _248  and  _251
REMARK  106  A    between atoms: _251  and  _252
REMARK  107  A    between atoms: _255  and  _257
REMARK  108  A    between atoms: _257  and  _258
REMARK  109  A    between atoms: _257  and  _260
REMARK  110  A    between atoms: _260  and  _261
REMARK  111  A    between atoms: _264  and  _266
REMARK  112  A    between atoms: _266  and  _267
REMARK  113  A    between atoms: _266  and  _269
REMARK  114  A    between atoms: _269  and  _270
REMARK  115  A    between atoms: _275  and  _277
REMARK  116  A    between atoms: _277  and  _278
REMARK  117  A    between atoms: _277  and  _280
REMARK  118  A    between atoms: _280  and  _281
REMARK  119  A    between atoms: _284  and  _286
REMARK  120  A    between atoms: _286  and  _287
REMARK  121  A    between atoms: _286  and  _289
REMARK  122  A    between atoms: _289  and  _290
REMARK  123  A    between atoms: _296  and  _298
REMARK  124  A    between atoms: _298  and  _299
REMARK  125  A    between atoms: _298  and  _301
REMARK  126  A    between atoms: _301  and  _302
REMARK  127  A    between atoms: _304  and  _306
REMARK  128  A    between atoms: _306  and  _307
REMARK  129  A    between atoms: _310  and  _312
REMARK  130  A    between atoms: _312  and  _313
REMARK  131  A    between atoms: _312  and  _315
REMARK  132  A    between atoms: _315  and  _316
REMARK  133  A    between atoms: _321  and  _323
REMARK  134  A    between atoms: _323  and  _324
REMARK  135  A    between atoms: _323  and  _326
REMARK  136  A    between atoms: _326  and  _327
REMARK  137  A    between atoms: _327  and  _328
REMARK  138  A    between atoms: _328  and  _329
REMARK  139  A    between atoms: _338  and  _340
REMARK  140  A    between atoms: _340  and  _341
REMARK  141  A    between atoms: _340  and  _343
REMARK  142  A    between atoms: _343  and  _344
REMARK  143  A    between atoms: _347  and  _349
REMARK  144  A    between atoms: _349  and  _350
REMARK  145  A    between atoms: _349  and  _352
REMARK  146  A    between atoms: _352  and  _353
REMARK  147  A    between atoms: _353  and  _354
REMARK  148  A    between atoms: _354  and  _355
REMARK  149  A    between atoms: _364  and  _366
REMARK  150  A    between atoms: _366  and  _367
REMARK  151  A    between atoms: _366  and  _369
REMARK  152  A    between atoms: _369  and  _370
REMARK  153  A    between atoms: _375  and  _376
REMARK  154  A    between atoms: _378  and  _380
REMARK  155  A    between atoms: _380  and  _381
REMARK  156  A    between atoms: _380  and  _383
REMARK  157  A    between atoms: _386  and  _388
REMARK  158  A    between atoms: _388  and  _389
REMARK  159  A    between atoms: _388  and  _391
REMARK  160  A    between atoms: _391  and  _392
REMARK  161  A    between atoms: _397  and  _398
REMARK  162  A    between atoms: _400  and  _402
REMARK  163  A    between atoms: _402  and  _403
REMARK  164  A    between atoms: _402  and  _405
REMARK  165  A    between atoms: _405  and  _406
REMARK  166  A    between atoms: _408  and  _410
REMARK  167  A    between atoms: _410  and  _411
REMARK  168  A    between atoms: _413  and  _415
REMARK  169  A    between atoms: _415  and  _416
REMARK  170  A    between atoms: _415  and  _418
REMARK  171  A    between atoms: _421  and  _423
REMARK  172  A    between atoms: _423  and  _424
REMARK  173  A    between atoms: _427  and  _429
REMARK  174  A    between atoms: _429  and  _430
REMARK  175  A    between atoms: _429  and  _432
REMARK  176  A    between atoms: _432  and  _433
REMARK  177  A    between atoms: _438  and  _439
REMARK  178  A    between atoms: _441  and  _443
REMARK  179  A    between atoms: _443  and  _444
REMARK  180  A    between atoms: _443  and  _446
REMARK  181  A    between atoms: _446  and  _447
REMARK  182  A    between atoms: _449  and  _451
REMARK  183  A    between atoms: _451  and  _452
REMARK  184  A    between atoms: _455  and  _457
REMARK  185  A    between atoms: _457  and  _458
REMARK  186  A    between atoms: _461  and  _463
REMARK  187  A    between atoms: _463  and  _464
REMARK  188  A    between atoms: _463  and  _466
REMARK  189  A    between atoms: _466  and  _467
REMARK  190  A    between atoms: _467  and  _468
REMARK  191  A    between atoms: _468  and  _469
REMARK  192  A    between atoms: _469  and  _470
REMARK  193  A    between atoms: _474  and  _476
REMARK  194  A    between atoms: _476  and  _477
REMARK  195  A    between atoms: _476  and  _479
REMARK  196  A    between atoms: _479  and  _480
REMARK  197  A    between atoms: _483  and  _485
REMARK  198  A    between atoms: _485  and  _486
REMARK  199  A    between atoms: _485  and  _488
REMARK  200  A    between atoms: _488  and  _489
REMARK  201  A    between atoms: _492  and  _494
REMARK  202  A    between atoms: _494  and  _495
REMARK  203  A    between atoms: _494  and  _497
REMARK  204  A    between atoms: _497  and  _498
REMARK  205  A    between atoms: _501  and  _503
REMARK  206  A    between atoms: _503  and  _504
REMARK  207  A    between atoms: _503  and  _506
REMARK  208  A    between atoms: _506  and  _507
REMARK  209  A    between atoms: _512  and  _514
REMARK  210  A    between atoms: _514  and  _515
REMARK  211  A    between atoms: _514  and  _517
REMARK  212  A    between atoms: _517  and  _518
REMARK  213  A    between atoms: _523  and  _525
REMARK  214  A    between atoms: _525  and  _526
REMARK  215  A    between atoms: _529  and  _531
REMARK  216  A    between atoms: _531  and  _532
REMARK  217  A    between atoms: _531  and  _534
REMARK  218  A    between atoms: _534  and  _535
REMARK  219  A    between atoms: _535  and  _536
REMARK  220  A    between atoms: _539  and  _541
REMARK  221  A    between atoms: _541  and  _542
REMARK  222  A    between atoms: _541  and  _544
REMARK  223  A    between atoms: _544  and  _545
REMARK  224  A    between atoms: _545  and  _546
REMARK  225  A    between atoms: _546  and  _547
REMARK  226  A    between atoms: _547  and  _548
REMARK  227  A    between atoms: _552  and  _554
REMARK  228  A    between atoms: _554  and  _555
REMARK  229  A    between atoms: _554  and  _557
REMARK  230  A    between atoms: _557  and  _558
REMARK  231  A    between atoms: _560  and  _562
REMARK  232  A    between atoms: _562  and  _563
REMARK  233  A    between atoms: _565  and  _567
REMARK  234  A    between atoms: _567  and  _568
REMARK  235  A    between atoms: _567  and  _570
REMARK  236  A    between atoms: _570  and  _571
REMARK  237  A    between atoms: _574  and  _576
REMARK  238  A    between atoms: _576  and  _577
REMARK  239  A    between atoms: _576  and  _579
REMARK  240  A    between atoms: _579  and  _580
REMARK  241  A    between atoms: _580  and  _581
REMARK  242  A    between atoms: _584  and  _586
REMARK  243  A    between atoms: _586  and  _587
REMARK  244  A    between atoms: _586  and  _589
REMARK  245  A    between atoms: _589  and  _590
REMARK  246  A    between atoms: _590  and  _591
REMARK  247  A    between atoms: _591  and  _592
REMARK  248  A    between atoms: _601  and  _603
REMARK  249  A    between atoms: _603  and  _604
REMARK  250  A    between atoms: _603  and  _606
REMARK  251  A    between atoms: _606  and  _607
REMARK  252  A    between atoms: _612  and  _613
REMARK  253  A    between atoms: _615  and  _617
REMARK  254  A    between atoms: _617  and  _618
REMARK  255  A    between atoms: _617  and  _620
REMARK  256  A    between atoms: _620  and  _621
REMARK  257  A    between atoms: _621  and  _622
REMARK  258  A    between atoms: _625  and  _627
REMARK  259  A    between atoms: _627  and  _628
REMARK  260  A    between atoms: _627  and  _630
REMARK  261  A    between atoms: _630  and  _631
REMARK  262  A    between atoms: _634  and  _636
REMARK  263  A    between atoms: _636  and  _637
REMARK  264  A    between atoms: _636  and  _639
REMARK  265  A    between atoms: _639  and  _640
REMARK  266  A    between atoms: _646  and  _648
REMARK  267  A    between atoms: _648  and  _649
REMARK  268  A    between atoms: _648  and  _651
REMARK  269  A    between atoms: _651  and  _652
REMARK  270  A    between atoms: _652  and  _653
REMARK  271  A    between atoms: _658  and  _660
REMARK  272  A    between atoms: _660  and  _661
REMARK  273  A    between atoms: _660  and  _663
REMARK  274  A    between atoms: _666  and  _668
REMARK  275  A    between atoms: _668  and  _669
REMARK  276  A    between atoms: _668  and  _671
REMARK  277  A    between atoms: _671  and  _672
REMARK  278  A    between atoms: _678  and  _680
REMARK  279  A    between atoms: _680  and  _681
REMARK  280  A    between atoms: _680  and  _683
REMARK  281  A    between atoms: _686  and  _688
REMARK  282  A    between atoms: _688  and  _689
REMARK  283  A    between atoms: _688  and  _691
REMARK  284  A    between atoms: _691  and  _692
REMARK  285  A    between atoms: _695  and  _697
REMARK  286  A    between atoms: _697  and  _698
REMARK  287  A    between atoms: _697  and  _700
REMARK  288  A    between atoms: _700  and  _701
REMARK  289  A    between atoms: _706  and  _708
REMARK  290  A    between atoms: _708  and  _709
REMARK  291  A    between atoms: _708  and  _711
REMARK  292  A    between atoms: _711  and  _712
REMARK  293  A    between atoms: _712  and  _713
REMARK  294  A    between atoms: _713  and  _714
REMARK  295  A    between atoms: _714  and  _715
REMARK  296  A    between atoms: _719  and  _721
REMARK  297  A    between atoms: _721  and  _722
REMARK  298  A    between atoms: _724  and  _726
REMARK  299  A    between atoms: _726  and  _727
REMARK  300  A    between atoms: _726  and  _729
REMARK  301  A    between atoms: _729  and  _730
REMARK  302  A    between atoms: _733  and  _735
REMARK  303  A    between atoms: _735  and  _736
REMARK  304  A    between atoms: _735  and  _738
REMARK  305  A    between atoms: _738  and  _739
REMARK  306  A    between atoms: _739  and  _740
REMARK  307  A    between atoms: _745  and  _747
REMARK  308  A    between atoms: _747  and  _748
REMARK  309  A    between atoms: _747  and  _750
REMARK  310  A    between atoms: _750  and  _751
REMARK  311  A    between atoms: _751  and  _752
REMARK  312  A    between atoms: _755  and  _757
REMARK  313  A    between atoms: _757  and  _758
REMARK  314  A    between atoms: _757  and  _760
REMARK  315  A    between atoms: _763  and  _765
REMARK  316  A    between atoms: _765  and  _766
REMARK  317  A    between atoms: _765  and  _768
REMARK  318  A    between atoms: _768  and  _769
REMARK  319  A    between atoms: _769  and  _770
REMARK                            x       y       z     vdW  Elec       q    Type
REMARK                         _______ _______ _______ _____ _____    ______ ____
ROOT
ATOM      1  O   HOH     1       4.603   4.481 137.712  0.00  0.00    +0.000 OA
ENDROOT
TORSDOF 0
REMARK  Name = ../refined-set-2016/3tmk/3tmk_pocket.pdb
REMARK  319 active torsions:
REMARK  status: ('A' for Active; 'I' for Inactive)
REMARK    1  A    between atoms: _1  and  _3
REMARK    2  A    between atoms: _3  and  _4
REMARK    3  A    between atoms: _3  and  _6
REMARK    4  A    between atoms: _6  and  _7
REMARK    5  A    between atoms: _10  and  _12
REMARK    6  A    between atoms: _12  and  _13
REMARK    7  A    between atoms: _12  and  _15
REMARK    8  A    between atoms: _15  and  _16
REMARK    9  A    between atoms: _16  and  _17
REMARK   10  A    between atoms: _20  and  _22
REMARK   11  A    between atoms: _22  and  _23
REMARK   12  A    between atoms: _25  and  _27
REMARK   13  A    between atoms: _27  and  _28
REMARK   14  A    between atoms: _27  and  _30
REMARK   15  A    between atoms: _30  and  _31
REMARK   16  A    between atoms: _34  and  _36
REMARK   17  A    between atoms: _36  and  _37
REMARK   18  A    between atoms: _36  and  _39
REMARK   19  A    between atoms: _39  and  _40
REMARK   20  A    between atoms: _43  and  _45
REMARK   21  A    between atoms: _45  and  _46
REMARK   22  A    between atoms: _45  and  _48
REMARK   23  A    between atoms: _48  and  _49
REMARK   24  A    between atoms: _49  and  _50
REMARK   25  A    between atoms: _50  and  _51
REMARK   26  A    between atoms: _60  and  _62
REMARK   27  A    between atoms: _62  and  _63
REMARK   28  A    between atoms: _62  and  _65
REMARK   29  A    between atoms: _65  and  _66
REMARK   30  A    between atoms: _69  and  _71
REMARK   31  A    between atoms: _71  and  _72
REMARK   32  A    between atoms: _74  and  _76
REMARK   33  A    between atoms: _76  and  _77
REMARK   34  A    between atoms: _76  and  _79
REMARK   35  A    between atoms: _79  and  _80
REMARK   36  A    between atoms: _80  and  _81
REMARK   37  A    between atoms: _81  and  _82
REMARK   38  A    between atoms: _82  and  _83
REMARK   39  A    between atoms: _87  and  _89
REMARK   40  A    between atoms: _89  and  _90
REMARK   41  A    between atoms: _89  and  _92
REMARK   42  A    between atoms: _92  and  _93
REMARK   43  A    between atoms: _96  and  _98
REMARK   44  A    between atoms: _98  and  _99
REMARK   45  A    between atoms: _98  and  _101
REMARK   46  A    between atoms: _101  and  _102
REMARK   47  A    between atoms: _105  and  _107
REMARK   48  A    between atoms: _107  and  _108
REMARK   49  A    between atoms: _107  and  _110
REMARK   50  A    between atoms: _110  and  _111
REMARK   51  A    between atoms: _111  and  _112
REMARK   52  A    between atoms: _117  and  _119
REMARK   53  A    between atoms: _119  and  _120
REMARK   54  A    between atoms: _119  and  _122
REMARK   55  A    between atoms: _124  and  _126
REMARK   56  A    between atoms: _126  and  _127
REMARK   57  A    between atoms: _126  and  _129
REMARK   58  A    between atoms: _129  and  _130
REMARK   59  A    between atoms: _135  and  _137
REMARK   60  A    between atoms: _137  and  _138
REMARK   61  A    between atoms: _137  and  _140
REMARK   62  A    between atoms: _140  and  _141
REMARK   63  A    between atoms: _144  and  _146
REMARK   64  A    between atoms: _146  and  _147
REMARK   65  A    between atoms: _146  and  _149
REMARK   66  A    between atoms: _149  and  _150
REMARK   67  A    between atoms: _150  and  _151
REMARK   68  A    between atoms: _151  and  _152
REMARK   69  A    between atoms: _152  and  _153
REMARK   70  A    between atoms: _157  and  _159
REMARK   71  A    between atoms: _159  and  _160
REMARK   72  A    between atoms: _159  and  _162
REMARK   73  A    between atoms: _162  and  _163
REMARK   74  A    between atoms: _170  and  _171
REMARK   75  A    between atoms: _176  and  _178
REMARK   76  A    between atoms: _178  and  _179
REMARK   77  A    between atoms: _178  and  _181
REMARK   78  A    between atoms: _181  and  _182
REMARK   79  A    between atoms: _182  and  _183
REMARK   80  A    between atoms: _186  and  _188
REMARK   81  A    between atoms: _188  and  _189
REMARK   82  A    between atoms: _188  and  _191
REMARK   83  A    between atoms: _191  and  _192
REMARK   84  A    between atoms: _192  and  _193
REMARK   85  A    between atoms: _193  and  _194
REMARK   86  A    between atoms: _203  and  _205
REMARK   87  A    between atoms: _205  and  _206
REMARK   88  A    between atoms: _205  and  _208
REMARK   89  A    between atoms: _208  and  _209
REMARK   90  A    between atoms: _212  and  _214
REMARK   91  A    between atoms: _214  and  _215
REMARK   92  A    between atoms: _214  and  _217
REMARK   93  A    between atoms: _217  and  _218
REMARK   94  A    between atoms: _223  and  _225
REMARK   95  A    between atoms: _225  and  _226
REMARK   96  A    between atoms: _225  and  _228
REMARK   97  A    between atoms: _228  and  _229
REMARK   98  A    between atoms: _234  and  _235
REMARK   99  A    between atoms: _237  and  _239
REMARK  100  A    between atoms: _239  and  _240
REMARK  101  A    between atoms: _239  and  _242
REMARK  102  A    between atoms: _242  and  _243
REMARK  103  A    between atoms: _246  and  _248
REMARK  104  A    between atoms: _248  and  _249
REMARK  105  A    between atoms: _248  and  _251
REMARK  106  A    between atoms: _251  and  _252
REMARK  107  A    between atoms: _255  and  _257
REMARK  108  A    between atoms: _257  and  _258
REMARK  109  A    between atoms: _257  and  _260
REMARK  110  A    between atoms: _260  and  _261
REMARK  111  A    between atoms: _264  and  _266
REMARK  112  A    between atoms: _266  and  _267
REMARK  113  A    between atoms: _266  and  _269
REMARK  114  A    between atoms: _269  and  _270
REMARK  115  A    between atoms: _275  and  _277
REMARK  116  A    between atoms: _277  and  _278
REMARK  117  A    between atoms: _277  and  _280
REMARK  118  A    between atoms: _280  and  _281
REMARK  119  A    between atoms: _284  and  _286
REMARK  120  A    between atoms: _286  and  _287
REMARK  121  A    between atoms: _286  and  _289
REMARK  122  A    between atoms: _289  and  _290
REMARK  123  A    between atoms: _296  and  _298
REMARK  124  A    between atoms: _298  and  _299
REMARK  125  A    between atoms: _298  and  _301
REMARK  126  A    between atoms: _301  and  _302
REMARK  127  A    between atoms: _304  and  _306
REMARK  128  A    between atoms: _306  and  _307
REMARK  129  A    between atoms: _310  and  _312
REMARK  130  A    between atoms: _312  and  _313
REMARK  131  A    between atoms: _312  and  _315
REMARK  132  A    between atoms: _315  and  _316
REMARK  133  A    between atoms: _321  and  _323
REMARK  134  A    between atoms: _323  and  _324
REMARK  135  A    between atoms: _323  and  _326
REMARK  136  A    between atoms: _326  and  _327
REMARK  137  A    between atoms: _327  and  _328
REMARK  138  A    between atoms: _328  and  _329
REMARK  139  A    between atoms: _338  and  _340
REMARK  140  A    between atoms: _340  and  _341
REMARK  141  A    between atoms: _340  and  _343
REMARK  142  A    between atoms: _343  and  _344
REMARK  143  A    between atoms: _347  and  _349
REMARK  144  A    between atoms: _349  and  _350
REMARK  145  A    between atoms: _349  and  _352
REMARK  146  A    between atoms: _352  and  _353
REMARK  147  A    between atoms: _353  and  _354
REMARK  148  A    between atoms: _354  and  _355
REMARK  149  A    between atoms: _364  and  _366
REMARK  150  A    between atoms: _366  and  _367
REMARK  151  A    between atoms: _366  and  _369
REMARK  152  A    between atoms: _369  and  _370
REMARK  153  A    between atoms: _375  and  _376
REMARK  154  A    between atoms: _378  and  _380
REMARK  155  A    between atoms: _380  and  _381
REMARK  156  A    between atoms: _380  and  _383
REMARK  157  A    between atoms: _386  and  _388
REMARK  158  A    between atoms: _388  and  _389
REMARK  159  A    between atoms: _388  and  _391
REMARK  160  A    between atoms: _391  and  _392
REMARK  161  A    between atoms: _397  and  _398
REMARK  162  A    between atoms: _400  and  _402
REMARK  163  A    between atoms: _402  and  _403
REMARK  164  A    between atoms: _402  and  _405
REMARK  165  A    between atoms: _405  and  _406
REMARK  166  A    between atoms: _408  and  _410
REMARK  167  A    between atoms: _410  and  _411
REMARK  168  A    between atoms: _413  and  _415
REMARK  169  A    between atoms: _415  and  _416
REMARK  170  A    between atoms: _415  and  _418
REMARK  171  A    between atoms: _421  and  _423
REMARK  172  A    between atoms: _423  and  _424
REMARK  173  A    between atoms: _427  and  _429
REMARK  174  A    between atoms: _429  and  _430
REMARK  175  A    between atoms: _429  and  _432
REMARK  176  A    between atoms: _432  and  _433
REMARK  177  A    between atoms: _438  and  _439
REMARK  178  A    between atoms: _441  and  _443
REMARK  179  A    between atoms: _443  and  _444
REMARK  180  A    between atoms: _443  and  _446
REMARK  181  A    between atoms: _446  and  _447
REMARK  182  A    between atoms: _449  and  _451
REMARK  183  A    between atoms: _451  and  _452
REMARK  184  A    between atoms: _455  and  _457
REMARK  185  A    between atoms: _457  and  _458
REMARK  186  A    between atoms: _461  and  _463
REMARK  187  A    between atoms: _463  and  _464
REMARK  188  A    between atoms: _463  and  _466
REMARK  189  A    between atoms: _466  and  _467
REMARK  190  A    between atoms: _467  and  _468
REMARK  191  A    between atoms: _468  and  _469
REMARK  192  A    between atoms: _469  and  _470
REMARK  193  A    between atoms: _474  and  _476
REMARK  194  A    between atoms: _476  and  _477
REMARK  195  A    between atoms: _476  and  _479
REMARK  196  A    between atoms: _479  and  _480
REMARK  197  A    between atoms: _483  and  _485
REMARK  198  A    between atoms: _485  and  _486
REMARK  199  A    between atoms: _485  and  _488
REMARK  200  A    between atoms: _488  and  _489
REMARK  201  A    between atoms: _492  and  _494
REMARK  202  A    between atoms: _494  and  _495
REMARK  203  A    between atoms: _494  and  _497
REMARK  204  A    between atoms: _497  and  _498
REMARK  205  A    between atoms: _501  and  _503
REMARK  206  A    between atoms: _503  and  _504
REMARK  207  A    between atoms: _503  and  _506
REMARK  208  A    between atoms: _506  and  _507
REMARK  209  A    between atoms: _512  and  _514
REMARK  210  A    between atoms: _514  and  _515
REMARK  211  A    between atoms: _514  and  _517
REMARK  212  A    between atoms: _517  and  _518
REMARK  213  A    between atoms: _523  and  _525
REMARK  214  A    between atoms: _525  and  _526
REMARK  215  A    between atoms: _529  and  _531
REMARK  216  A    between atoms: _531  and  _532
REMARK  217  A    between atoms: _531  and  _534
REMARK  218  A    between atoms: _534  and  _535
REMARK  219  A    between atoms: _535  and  _536
REMARK  220  A    between atoms: _539  and  _541
REMARK  221  A    between atoms: _541  and  _542
REMARK  222  A    between atoms: _541  and  _544
REMARK  223  A    between atoms: _544  and  _545
REMARK  224  A    between atoms: _545  and  _546
REMARK  225  A    between atoms: _546  and  _547
REMARK  226  A    between atoms: _547  and  _548
REMARK  227  A    between atoms: _552  and  _554
REMARK  228  A    between atoms: _554  and  _555
REMARK  229  A    between atoms: _554  and  _557
REMARK  230  A    between atoms: _557  and  _558
REMARK  231  A    between atoms: _560  and  _562
REMARK  232  A    between atoms: _562  and  _563
REMARK  233  A    between atoms: _565  and  _567
REMARK  234  A    between atoms: _567  and  _568
REMARK  235  A    between atoms: _567  and  _570
REMARK  236  A    between atoms: _570  and  _571
REMARK  237  A    between atoms: _574  and  _576
REMARK  238  A    between atoms: _576  and  _577
REMARK  239  A    between atoms: _576  and  _579
REMARK  240  A    between atoms: _579  and  _580
REMARK  241  A    between atoms: _580  and  _581
REMARK  242  A    between atoms: _584  and  _586
REMARK  243  A    between atoms: _586  and  _587
REMARK  244  A    between atoms: _586  and  _589
REMARK  245  A    between atoms: _589  and  _590
REMARK  246  A    between atoms: _590  and  _591
REMARK  247  A    between atoms: _591  and  _592
REMARK  248  A    between atoms: _601  and  _603
REMARK  249  A    between atoms: _603  and  _604
REMARK  250  A    between atoms: _603  and  _606
REMARK  251  A    between atoms: _606  and  _607
REMARK  252  A    between atoms: _612  and  _613
REMARK  253  A    between atoms: _615  and  _617
REMARK  254  A    between atoms: _617  and  _618
REMARK  255  A    between atoms: _617  and  _620
REMARK  256  A    between atoms: _620  and  _621
REMARK  257  A    between atoms: _621  and  _622
REMARK  258  A    between atoms: _625  and  _627
REMARK  259  A    between atoms: _627  and  _628
REMARK  260  A    between atoms: _627  and  _630
REMARK  261  A    between atoms: _630  and  _631
REMARK  262  A    between atoms: _634  and  _636
REMARK  263  A    between atoms: _636  and  _637
REMARK  264  A    between atoms: _636  and  _639
REMARK  265  A    between atoms: _639  and  _640
REMARK  266  A    between atoms: _646  and  _648
REMARK  267  A    between atoms: _648  and  _649
REMARK  268  A    between atoms: _648  and  _651
REMARK  269  A    between atoms: _651  and  _652
REMARK  270  A    between atoms: _652  and  _653
REMARK  271  A    between atoms: _658  and  _660
REMARK  272  A    between atoms: _660  and  _661
REMARK  273  A    between atoms: _660  and  _663
REMARK  274  A    between atoms: _666  and  _668
REMARK  275  A    between atoms: _668  and  _669
REMARK  276  A    between atoms: _668  and  _671
REMARK  277  A    between atoms: _671  and  _672
REMARK  278  A    between atoms: _678  and  _680
REMARK  279  A    between atoms: _680  and  _681
REMARK  280  A    between atoms: _680  and  _683
REMARK  281  A    between atoms: _686  and  _688
REMARK  282  A    between atoms: _688  and  _689
REMARK  283  A    between atoms: _688  and  _691
REMARK  284  A    between atoms: _691  and  _692
REMARK  285  A    between atoms: _695  and  _697
REMARK  286  A    between atoms: _697  and  _698
REMARK  287  A    between atoms: _697  and  _700
REMARK  288  A    between atoms: _700  and  _701
REMARK  289  A    between atoms: _706  and  _708
REMARK  290  A    between atoms: _708  and  _709
REMARK  291  A    between atoms: _708  and  _711
REMARK  292  A    between atoms: _711  and  _712
REMARK  293  A    between atoms: _712  and  _713
REMARK  294  A    between atoms: _713  and  _714
REMARK  295  A    between atoms: _714  and  _715
REMARK  296  A    between atoms: _719  and  _721
REMARK  297  A    between atoms: _721  and  _722
REMARK  298  A    between atoms: _724  and  _726
REMARK  299  A    between atoms: _726  and  _727
REMARK  300  A    between atoms: _726  and  _729
REMARK  301  A    between atoms: _729  and  _730
REMARK  302  A    between atoms: _733  and  _735
REMARK  303  A    between atoms: _735  and  _736
REMARK  304  A    between atoms: _735  and  _738
REMARK  305  A    between atoms: _738  and  _739
REMARK  306  A    between atoms: _739  and  _740
REMARK  307  A    between atoms: _745  and  _747
REMARK  308  A    between atoms: _747  and  _748
REMARK  309  A    between atoms: _747  and  _750
REMARK  310  A    between atoms: _750  and  _751
REMARK  311  A    between atoms: _751  and  _752
REMARK  312  A    between atoms: _755  and  _757
REMARK  313  A    between atoms: _757  and  _758
REMARK  314  A    between atoms: _757  and  _760
REMARK  315  A    between atoms: _763  and  _765
REMARK  316  A    between atoms: _765  and  _766
REMARK  317  A    between atoms: _765  and  _768
REMARK  318  A    between atoms: _768  and  _769
REMARK  319  A    between atoms: _769  and  _770
REMARK                            x       y       z     vdW  Elec       q    Type
REMARK                         _______ _______ _______ _____ _____    ______ ____
ROOT
ATOM      1  O   HOH     1      -0.843   3.428 143.108  0.00  0.00    +0.000 OA
ENDROOT
TORSDOF 0
REMARK  Name = ../refined-set-2016/3tmk/3tmk_pocket.pdb
REMARK  319 active torsions:
REMARK  status: ('A' for Active; 'I' for Inactive)
REMARK    1  A    between atoms: _1  and  _3
REMARK    2  A    between atoms: _3  and  _4
REMARK    3  A    between atoms: _3  and  _6
REMARK    4  A    between atoms: _6  and  _7
REMARK    5  A    between atoms: _10  and  _12
REMARK    6  A    between atoms: _12  and  _13
REMARK    7  A    between atoms: _12  and  _15
REMARK    8  A    between atoms: _15  and  _16
REMARK    9  A    between atoms: _16  and  _17
REMARK   10  A    between atoms: _20  and  _22
REMARK   11  A    between atoms: _22  and  _23
REMARK   12  A    between atoms: _25  and  _27
REMARK   13  A    between atoms: _27  and  _28
REMARK   14  A    between atoms: _27  and  _30
REMARK   15  A    between atoms: _30  and  _31
REMARK   16  A    between atoms: _34  and  _36
REMARK   17  A    between atoms: _36  and  _37
REMARK   18  A    between atoms: _36  and  _39
REMARK   19  A    between atoms: _39  and  _40
REMARK   20  A    between atoms: _43  and  _45
REMARK   21  A    between atoms: _45  and  _46
REMARK   22  A    between atoms: _45  and  _48
REMARK   23  A    between atoms: _48  and  _49
REMARK   24  A    between atoms: _49  and  _50
REMARK   25  A    between atoms: _50  and  _51
REMARK   26  A    between atoms: _60  and  _62
REMARK   27  A    between atoms: _62  and  _63
REMARK   28  A    between atoms: _62  and  _65
REMARK   29  A    between atoms: _65  and  _66
REMARK   30  A    between atoms: _69  and  _71
REMARK   31  A    between atoms: _71  and  _72
REMARK   32  A    between atoms: _74  and  _76
REMARK   33  A    between atoms: _76  and  _77
REMARK   34  A    between atoms: _76  and  _79
REMARK   35  A    between atoms: _79  and  _80
REMARK   36  A    between atoms: _80  and  _81
REMARK   37  A    between atoms: _81  and  _82
REMARK   38  A    between atoms: _82  and  _83
REMARK   39  A    between atoms: _87  and  _89
REMARK   40  A    between atoms: _89  and  _90
REMARK   41  A    between atoms: _89  and  _92
REMARK   42  A    between atoms: _92  and  _93
REMARK   43  A    between atoms: _96  and  _98
REMARK   44  A    between atoms: _98  and  _99
REMARK   45  A    between atoms: _98  and  _101
REMARK   46  A    between atoms: _101  and  _102
REMARK   47  A    between atoms: _105  and  _107
REMARK   48  A    between atoms: _107  and  _108
REMARK   49  A    between atoms: _107  and  _110
REMARK   50  A    between atoms: _110  and  _111
REMARK   51  A    between atoms: _111  and  _112
REMARK   52  A    between atoms: _117  and  _119
REMARK   53  A    between atoms: _119  and  _120
REMARK   54  A    between atoms: _119  and  _122
REMARK   55  A    between atoms: _124  and  _126
REMARK   56  A    between atoms: _126  and  _127
REMARK   57  A    between atoms: _126  and  _129
REMARK   58  A    between atoms: _129  and  _130
REMARK   59  A    between atoms: _135  and  _137
REMARK   60  A    between atoms: _137  and  _138
REMARK   61  A    between atoms: _137  and  _140
REMARK   62  A    between atoms: _140  and  _141
REMARK   63  A    between atoms: _144  and  _146
REMARK   64  A    between atoms: _146  and  _147
REMARK   65  A    between atoms: _146  and  _149
REMARK   66  A    between atoms: _149  and  _150
REMARK   67  A    between atoms: _150  and  _151
REMARK   68  A    between atoms: _151  and  _152
REMARK   69  A    between atoms: _152  and  _153
REMARK   70  A    between atoms: _157  and  _159
REMARK   71  A    between atoms: _159  and  _160
REMARK   72  A    between atoms: _159  and  _162
REMARK   73  A    between atoms: _162  and  _163
REMARK   74  A    between atoms: _170  and  _171
REMARK   75  A    between atoms: _176  and  _178
REMARK   76  A    between atoms: _178  and  _179
REMARK   77  A    between atoms: _178  and  _181
REMARK   78  A    between atoms: _181  and  _182
REMARK   79  A    between atoms: _182  and  _183
REMARK   80  A    between atoms: _186  and  _188
REMARK   81  A    between atoms: _188  and  _189
REMARK   82  A    between atoms: _188  and  _191
REMARK   83  A    between atoms: _191  and  _192
REMARK   84  A    between atoms: _192  and  _193
REMARK   85  A    between atoms: _193  and  _194
REMARK   86  A    between atoms: _203  and  _205
REMARK   87  A    between atoms: _205  and  _206
REMARK   88  A    between atoms: _205  and  _208
REMARK   89  A    between atoms: _208  and  _209
REMARK   90  A    between atoms: _212  and  _214
REMARK   91  A    between atoms: _214  and  _215
REMARK   92  A    between atoms: _214  and  _217
REMARK   93  A    between atoms: _217  and  _218
REMARK   94  A    between atoms: _223  and  _225
REMARK   95  A    between atoms: _225  and  _226
REMARK   96  A    between atoms: _225  and  _228
REMARK   97  A    between atoms: _228  and  _229
REMARK   98  A    between atoms: _234  and  _235
REMARK   99  A    between atoms: _237  and  _239
REMARK  100  A    between atoms: _239  and  _240
REMARK  101  A    between atoms: _239  and  _242
REMARK  102  A    between atoms: _242  and  _243
REMARK  103  A    between atoms: _246  and  _248
REMARK  104  A    between atoms: _248  and  _249
REMARK  105  A    between atoms: _248  and  _251
REMARK  106  A    between atoms: _251  and  _252
REMARK  107  A    between atoms: _255  and  _257
REMARK  108  A    between atoms: _257  and  _258
REMARK  109  A    between atoms: _257  and  _260
REMARK  110  A    between atoms: _260  and  _261
REMARK  111  A    between atoms: _264  and  _266
REMARK  112  A    between atoms: _266  and  _267
REMARK  113  A    between atoms: _266  and  _269
REMARK  114  A    between atoms: _269  and  _270
REMARK  115  A    between atoms: _275  and  _277
REMARK  116  A    between atoms: _277  and  _278
REMARK  117  A    between atoms: _277  and  _280
REMARK  118  A    between atoms: _280  and  _281
REMARK  119  A    between atoms: _284  and  _286
REMARK  120  A    between atoms: _286  and  _287
REMARK  121  A    between atoms: _286  and  _289
REMARK  122  A    between atoms: _289  and  _290
REMARK  123  A    between atoms: _296  and  _298
REMARK  124  A    between atoms: _298  and  _299
REMARK  125  A    between atoms: _298  and  _301
REMARK  126  A    between atoms: _301  and  _302
REMARK  127  A    between atoms: _304  and  _306
REMARK  128  A    between atoms: _306  and  _307
REMARK  129  A    between atoms: _310  and  _312
REMARK  130  A    between atoms: _312  and  _313
REMARK  131  A    between atoms: _312  and  _315
REMARK  132  A    between atoms: _315  and  _316
REMARK  133  A    between atoms: _321  and  _323
REMARK  134  A    between atoms: _323  and  _324
REMARK  135  A    between atoms: _323  and  _326
REMARK  136  A    between atoms: _326  and  _327
REMARK  137  A    between atoms: _327  and  _328
REMARK  138  A    between atoms: _328  and  _329
REMARK  139  A    between atoms: _338  and  _340
REMARK  140  A    between atoms: _340  and  _341
REMARK  141  A    between atoms: _340  and  _343
REMARK  142  A    between atoms: _343  and  _344
REMARK  143  A    between atoms: _347  and  _349
REMARK  144  A    between atoms: _349  and  _350
REMARK  145  A    between atoms: _349  and  _352
REMARK  146  A    between atoms: _352  and  _353
REMARK  147  A    between atoms: _353  and  _354
REMARK  148  A    between atoms: _354  and  _355
REMARK  149  A    between atoms: _364  and  _366
REMARK  150  A    between atoms: _366  and  _367
REMARK  151  A    between atoms: _366  and  _369
REMARK  152  A    between atoms: _369  and  _370
REMARK  153  A    between atoms: _375  and  _376
REMARK  154  A    between atoms: _378  and  _380
REMARK  155  A    between atoms: _380  and  _381
REMARK  156  A    between atoms: _380  and  _383
REMARK  157  A    between atoms: _386  and  _388
REMARK  158  A    between atoms: _388  and  _389
REMARK  159  A    between atoms: _388  and  _391
REMARK  160  A    between atoms: _391  and  _392
REMARK  161  A    between atoms: _397  and  _398
REMARK  162  A    between atoms: _400  and  _402
REMARK  163  A    between atoms: _402  and  _403
REMARK  164  A    between atoms: _402  and  _405
REMARK  165  A    between atoms: _405  and  _406
REMARK  166  A    between atoms: _408  and  _410
REMARK  167  A    between atoms: _410  and  _411
REMARK  168  A    between atoms: _413  and  _415
REMARK  169  A    between atoms: _415  and  _416
REMARK  170  A    between atoms: _415  and  _418
REMARK  171  A    between atoms: _421  and  _423
REMARK  172  A    between atoms: _423  and  _424
REMARK  173  A    between atoms: _427  and  _429
REMARK  174  A    between atoms: _429  and  _430
REMARK  175  A    between atoms: _429  and  _432
REMARK  176  A    between atoms: _432  and  _433
REMARK  177  A    between atoms: _438  and  _439
REMARK  178  A    between atoms: _441  and  _443
REMARK  179  A    between atoms: _443  and  _444
REMARK  180  A    between atoms: _443  and  _446
REMARK  181  A    between atoms: _446  and  _447
REMARK  182  A    between atoms: _449  and  _451
REMARK  183  A    between atoms: _451  and  _452
REMARK  184  A    between atoms: _455  and  _457
REMARK  185  A    between atoms: _457  and  _458
REMARK  186  A    between atoms: _461  and  _463
REMARK  187  A    between atoms: _463  and  _464
REMARK  188  A    between atoms: _463  and  _466
REMARK  189  A    between atoms: _466  and  _467
REMARK  190  A    between atoms: _467  and  _468
REMARK  191  A    between atoms: _468  and  _469
REMARK  192  A    between atoms: _469  and  _470
REMARK  193  A    between atoms: _474  and  _476
REMARK  194  A    between atoms: _476  and  _477
REMARK  195  A    between atoms: _476  and  _479
REMARK  196  A    between atoms: _479  and  _480
REMARK  197  A    between atoms: _483  and  _485
REMARK  198  A    between atoms: _485  and  _486
REMARK  199  A    between atoms: _485  and  _488
REMARK  200  A    between atoms: _488  and  _489
REMARK  201  A    between atoms: _492  and  _494
REMARK  202  A    between atoms: _494  and  _495
REMARK  203  A    between atoms: _494  and  _497
REMARK  204  A    between atoms: _497  and  _498
REMARK  205  A    between atoms: _501  and  _503
REMARK  206  A    between atoms: _503  and  _504
REMARK  207  A    between atoms: _503  and  _506
REMARK  208  A    between atoms: _506  and  _507
REMARK  209  A    between atoms: _512  and  _514
REMARK  210  A    between atoms: _514  and  _515
REMARK  211  A    between atoms: _514  and  _517
REMARK  212  A    between atoms: _517  and  _518
REMARK  213  A    between atoms: _523  and  _525
REMARK  214  A    between atoms: _525  and  _526
REMARK  215  A    between atoms: _529  and  _531
REMARK  216  A    between atoms: _531  and  _532
REMARK  217  A    between atoms: _531  and  _534
REMARK  218  A    between atoms: _534  and  _535
REMARK  219  A    between atoms: _535  and  _536
REMARK  220  A    between atoms: _539  and  _541
REMARK  221  A    between atoms: _541  and  _542
REMARK  222  A    between atoms: _541  and  _544
REMARK  223  A    between atoms: _544  and  _545
REMARK  224  A    between atoms: _545  and  _546
REMARK  225  A    between atoms: _546  and  _547
REMARK  226  A    between atoms: _547  and  _548
REMARK  227  A    between atoms: _552  and  _554
REMARK  228  A    between atoms: _554  and  _555
REMARK  229  A    between atoms: _554  and  _557
REMARK  230  A    between atoms: _557  and  _558
REMARK  231  A    between atoms: _560  and  _562
REMARK  232  A    between atoms: _562  and  _563
REMARK  233  A    between atoms: _565  and  _567
REMARK  234  A    between atoms: _567  and  _568
REMARK  235  A    between atoms: _567  and  _570
REMARK  236  A    between atoms: _570  and  _571
REMARK  237  A    between atoms: _574  and  _576
REMARK  238  A    between atoms: _576  and  _577
REMARK  239  A    between atoms: _576  and  _579
REMARK  240  A    between atoms: _579  and  _580
REMARK  241  A    between atoms: _580  and  _581
REMARK  242  A    between atoms: _584  and  _586
REMARK  243  A    between atoms: _586  and  _587
REMARK  244  A    between atoms: _586  and  _589
REMARK  245  A    between atoms: _589  and  _590
REMARK  246  A    between atoms: _590  and  _591
REMARK  247  A    between atoms: _591  and  _592
REMARK  248  A    between atoms: _601  and  _603
REMARK  249  A    between atoms: _603  and  _604
REMARK  250  A    between atoms: _603  and  _606
REMARK  251  A    between atoms: _606  and  _607
REMARK  252  A    between atoms: _612  and  _613
REMARK  253  A    between atoms: _615  and  _617
REMARK  254  A    between atoms: _617  and  _618
REMARK  255  A    between atoms: _617  and  _620
REMARK  256  A    between atoms: _620  and  _621
REMARK  257  A    between atoms: _621  and  _622
REMARK  258  A    between atoms: _625  and  _627
REMARK  259  A    between atoms: _627  and  _628
REMARK  260  A    between atoms: _627  and  _630
REMARK  261  A    between atoms: _630  and  _631
REMARK  262  A    between atoms: _634  and  _636
REMARK  263  A    between atoms: _636  and  _637
REMARK  264  A    between atoms: _636  and  _639
REMARK  265  A    between atoms: _639  and  _640
REMARK  266  A    between atoms: _646  and  _648
REMARK  267  A    between atoms: _648  and  _649
REMARK  268  A    between atoms: _648  and  _651
REMARK  269  A    between atoms: _651  and  _652
REMARK  270  A    between atoms: _652  and  _653
REMARK  271  A    between atoms: _658  and  _660
REMARK  272  A    between atoms: _660  and  _661
REMARK  273  A    between atoms: _660  and  _663
REMARK  274  A    between atoms: _666  and  _668
REMARK  275  A    between atoms: _668  and  _669
REMARK  276  A    between atoms: _668  and  _671
REMARK  277  A    between atoms: _671  and  _672
REMARK  278  A    between atoms: _678  and  _680
REMARK  279  A    between atoms: _680  and  _681
REMARK  280  A    between atoms: _680  and  _683
REMARK  281  A    between atoms: _686  and  _688
REMARK  282  A    between atoms: _688  and  _689
REMARK  283  A    between atoms: _688  and  _691
REMARK  284  A    between atoms: _691  and  _692
REMARK  285  A    between atoms: _695  and  _697
REMARK  286  A    between atoms: _697  and  _698
REMARK  287  A    between atoms: _697  and  _700
REMARK  288  A    between atoms: _700  and  _701
REMARK  289  A    between atoms: _706  and  _708
REMARK  290  A    between atoms: _708  and  _709
REMARK  291  A    between atoms: _708  and  _711
REMARK  292  A    between atoms: _711  and  _712
REMARK  293  A    between atoms: _712  and  _713
REMARK  294  A    between atoms: _713  and  _714
REMARK  295  A    between atoms: _714  and  _715
REMARK  296  A    between atoms: _719  and  _721
REMARK  297  A    between atoms: _721  and  _722
REMARK  298  A    between atoms: _724  and  _726
REMARK  299  A    between atoms: _726  and  _727
REMARK  300  A    between atoms: _726  and  _729
REMARK  301  A    between atoms: _729  and  _730
REMARK  302  A    between atoms: _733  and  _735
REMARK  303  A    between atoms: _735  and  _736
REMARK  304  A    between atoms: _735  and  _738
REMARK  305  A    between atoms: _738  and  _739
REMARK  306  A    between atoms: _739  and  _740
REMARK  307  A    between atoms: _745  and  _747
REMARK  308  A    between atoms: _747  and  _748
REMARK  309  A    between atoms: _747  and  _750
REMARK  310  A    between atoms: _750  and  _751
REMARK  311  A    between atoms: _751  and  _752
REMARK  312  A    between atoms: _755  and  _757
REMARK  313  A    between atoms: _757  and  _758
REMARK  314  A    between atoms: _757  and  _760
REMARK  315  A    between atoms: _763  and  _765
REMARK  316  A    between atoms: _765  and  _766
REMARK  317  A    between atoms: _765  and  _768
REMARK  318  A    between atoms: _768  and  _769
REMARK  319  A    between atoms: _769  and  _770
REMARK                            x       y       z     vdW  Elec       q    Type
REMARK                         _______ _______ _______ _____ _____    ______ ____
ROOT
ATOM      1  O   HOH     1      -2.726   6.809 142.660  0.00  0.00    +0.000 OA
ENDROOT
TORSDOF 0
REMARK  Name = ../refined-set-2016/3tmk/3tmk_pocket.pdb
REMARK  319 active torsions:
REMARK  status: ('A' for Active; 'I' for Inactive)
REMARK    1  A    between atoms: _1  and  _3
REMARK    2  A    between atoms: _3  and  _4
REMARK    3  A    between atoms: _3  and  _6
REMARK    4  A    between atoms: _6  and  _7
REMARK    5  A    between atoms: _10  and  _12
REMARK    6  A    between atoms: _12  and  _13
REMARK    7  A    between atoms: _12  and  _15
REMARK    8  A    between atoms: _15  and  _16
REMARK    9  A    between atoms: _16  and  _17
REMARK   10  A    between atoms: _20  and  _22
REMARK   11  A    between atoms: _22  and  _23
REMARK   12  A    between atoms: _25  and  _27
REMARK   13  A    between atoms: _27  and  _28
REMARK   14  A    between atoms: _27  and  _30
REMARK   15  A    between atoms: _30  and  _31
REMARK   16  A    between atoms: _34  and  _36
REMARK   17  A    between atoms: _36  and  _37
REMARK   18  A    between atoms: _36  and  _39
REMARK   19  A    between atoms: _39  and  _40
REMARK   20  A    between atoms: _43  and  _45
REMARK   21  A    between atoms: _45  and  _46
REMARK   22  A    between atoms: _45  and  _48
REMARK   23  A    between atoms: _48  and  _49
REMARK   24  A    between atoms: _49  and  _50
REMARK   25  A    between atoms: _50  and  _51
REMARK   26  A    between atoms: _60  and  _62
REMARK   27  A    between atoms: _62  and  _63
REMARK   28  A    between atoms: _62  and  _65
REMARK   29  A    between atoms: _65  and  _66
REMARK   30  A    between atoms: _69  and  _71
REMARK   31  A    between atoms: _71  and  _72
REMARK   32  A    between atoms: _74  and  _76
REMARK   33  A    between atoms: _76  and  _77
REMARK   34  A    between atoms: _76  and  _79
REMARK   35  A    between atoms: _79  and  _80
REMARK   36  A    between atoms: _80  and  _81
REMARK   37  A    between atoms: _81  and  _82
REMARK   38  A    between atoms: _82  and  _83
REMARK   39  A    between atoms: _87  and  _89
REMARK   40  A    between atoms: _89  and  _90
REMARK   41  A    between atoms: _89  and  _92
REMARK   42  A    between atoms: _92  and  _93
REMARK   43  A    between atoms: _96  and  _98
REMARK   44  A    between atoms: _98  and  _99
REMARK   45  A    between atoms: _98  and  _101
REMARK   46  A    between atoms: _101  and  _102
REMARK   47  A    between atoms: _105  and  _107
REMARK   48  A    between atoms: _107  and  _108
REMARK   49  A    between atoms: _107  and  _110
REMARK   50  A    between atoms: _110  and  _111
REMARK   51  A    between atoms: _111  and  _112
REMARK   52  A    between atoms: _117  and  _119
REMARK   53  A    between atoms: _119  and  _120
REMARK   54  A    between atoms: _119  and  _122
REMARK   55  A    between atoms: _124  and  _126
REMARK   56  A    between atoms: _126  and  _127
REMARK   57  A    between atoms: _126  and  _129
REMARK   58  A    between atoms: _129  and  _130
REMARK   59  A    between atoms: _135  and  _137
REMARK   60  A    between atoms: _137  and  _138
REMARK   61  A    between atoms: _137  and  _140
REMARK   62  A    between atoms: _140  and  _141
REMARK   63  A    between atoms: _144  and  _146
REMARK   64  A    between atoms: _146  and  _147
REMARK   65  A    between atoms: _146  and  _149
REMARK   66  A    between atoms: _149  and  _150
REMARK   67  A    between atoms: _150  and  _151
REMARK   68  A    between atoms: _151  and  _152
REMARK   69  A    between atoms: _152  and  _153
REMARK   70  A    between atoms: _157  and  _159
REMARK   71  A    between atoms: _159  and  _160
REMARK   72  A    between atoms: _159  and  _162
REMARK   73  A    between atoms: _162  and  _163
REMARK   74  A    between atoms: _170  and  _171
REMARK   75  A    between atoms: _176  and  _178
REMARK   76  A    between atoms: _178  and  _179
REMARK   77  A    between atoms: _178  and  _181
REMARK   78  A    between atoms: _181  and  _182
REMARK   79  A    between atoms: _182  and  _183
REMARK   80  A    between atoms: _186  and  _188
REMARK   81  A    between atoms: _188  and  _189
REMARK   82  A    between atoms: _188  and  _191
REMARK   83  A    between atoms: _191  and  _192
REMARK   84  A    between atoms: _192  and  _193
REMARK   85  A    between atoms: _193  and  _194
REMARK   86  A    between atoms: _203  and  _205
REMARK   87  A    between atoms: _205  and  _206
REMARK   88  A    between atoms: _205  and  _208
REMARK   89  A    between atoms: _208  and  _209
REMARK   90  A    between atoms: _212  and  _214
REMARK   91  A    between atoms: _214  and  _215
REMARK   92  A    between atoms: _214  and  _217
REMARK   93  A    between atoms: _217  and  _218
REMARK   94  A    between atoms: _223  and  _225
REMARK   95  A    between atoms: _225  and  _226
REMARK   96  A    between atoms: _225  and  _228
REMARK   97  A    between atoms: _228  and  _229
REMARK   98  A    between atoms: _234  and  _235
REMARK   99  A    between atoms: _237  and  _239
REMARK  100  A    between atoms: _239  and  _240
REMARK  101  A    between atoms: _239  and  _242
REMARK  102  A    between atoms: _242  and  _243
REMARK  103  A    between atoms: _246  and  _248
REMARK  104  A    between atoms: _248  and  _249
REMARK  105  A    between atoms: _248  and  _251
REMARK  106  A    between atoms: _251  and  _252
REMARK  107  A    between atoms: _255  and  _257
REMARK  108  A    between atoms: _257  and  _258
REMARK  109  A    between atoms: _257  and  _260
REMARK  110  A    between atoms: _260  and  _261
REMARK  111  A    between atoms: _264  and  _266
REMARK  112  A    between atoms: _266  and  _267
REMARK  113  A    between atoms: _266  and  _269
REMARK  114  A    between atoms: _269  and  _270
REMARK  115  A    between atoms: _275  and  _277
REMARK  116  A    between atoms: _277  and  _278
REMARK  117  A    between atoms: _277  and  _280
REMARK  118  A    between atoms: _280  and  _281
REMARK  119  A    between atoms: _284  and  _286
REMARK  120  A    between atoms: _286  and  _287
REMARK  121  A    between atoms: _286  and  _289
REMARK  122  A    between atoms: _289  and  _290
REMARK  123  A    between atoms: _296  and  _298
REMARK  124  A    between atoms: _298  and  _299
REMARK  125  A    between atoms: _298  and  _301
REMARK  126  A    between atoms: _301  and  _302
REMARK  127  A    between atoms: _304  and  _306
REMARK  128  A    between atoms: _306  and  _307
REMARK  129  A    between atoms: _310  and  _312
REMARK  130  A    between atoms: _312  and  _313
REMARK  131  A    between atoms: _312  and  _315
REMARK  132  A    between atoms: _315  and  _316
REMARK  133  A    between atoms: _321  and  _323
REMARK  134  A    between atoms: _323  and  _324
REMARK  135  A    between atoms: _323  and  _326
REMARK  136  A    between atoms: _326  and  _327
REMARK  137  A    between atoms: _327  and  _328
REMARK  138  A    between atoms: _328  and  _329
REMARK  139  A    between atoms: _338  and  _340
REMARK  140  A    between atoms: _340  and  _341
REMARK  141  A    between atoms: _340  and  _343
REMARK  142  A    between atoms: _343  and  _344
REMARK  143  A    between atoms: _347  and  _349
REMARK  144  A    between atoms: _349  and  _350
REMARK  145  A    between atoms: _349  and  _352
REMARK  146  A    between atoms: _352  and  _353
REMARK  147  A    between atoms: _353  and  _354
REMARK  148  A    between atoms: _354  and  _355
REMARK  149  A    between atoms: _364  and  _366
REMARK  150  A    between atoms: _366  and  _367
REMARK  151  A    between atoms: _366  and  _369
REMARK  152  A    between atoms: _369  and  _370
REMARK  153  A    between atoms: _375  and  _376
REMARK  154  A    between atoms: _378  and  _380
REMARK  155  A    between atoms: _380  and  _381
REMARK  156  A    between atoms: _380  and  _383
REMARK  157  A    between atoms: _386  and  _388
REMARK  158  A    between atoms: _388  and  _389
REMARK  159  A    between atoms: _388  and  _391
REMARK  160  A    between atoms: _391  and  _392
REMARK  161  A    between atoms: _397  and  _398
REMARK  162  A    between atoms: _400  and  _402
REMARK  163  A    between atoms: _402  and  _403
REMARK  164  A    between atoms: _402  and  _405
REMARK  165  A    between atoms: _405  and  _406
REMARK  166  A    between atoms: _408  and  _410
REMARK  167  A    between atoms: _410  and  _411
REMARK  168  A    between atoms: _413  and  _415
REMARK  169  A    between atoms: _415  and  _416
REMARK  170  A    between atoms: _415  and  _418
REMARK  171  A    between atoms: _421  and  _423
REMARK  172  A    between atoms: _423  and  _424
REMARK  173  A    between atoms: _427  and  _429
REMARK  174  A    between atoms: _429  and  _430
REMARK  175  A    between atoms: _429  and  _432
REMARK  176  A    between atoms: _432  and  _433
REMARK  177  A    between atoms: _438  and  _439
REMARK  178  A    between atoms: _441  and  _443
REMARK  179  A    between atoms: _443  and  _444
REMARK  180  A    between atoms: _443  and  _446
REMARK  181  A    between atoms: _446  and  _447
REMARK  182  A    between atoms: _449  and  _451
REMARK  183  A    between atoms: _451  and  _452
REMARK  184  A    between atoms: _455  and  _457
REMARK  185  A    between atoms: _457  and  _458
REMARK  186  A    between atoms: _461  and  _463
REMARK  187  A    between atoms: _463  and  _464
REMARK  188  A    between atoms: _463  and  _466
REMARK  189  A    between atoms: _466  and  _467
REMARK  190  A    between atoms: _467  and  _468
REMARK  191  A    between atoms: _468  and  _469
REMARK  192  A    between atoms: _469  and  _470
REMARK  193  A    between atoms: _474  and  _476
REMARK  194  A    between atoms: _476  and  _477
REMARK  195  A    between atoms: _476  and  _479
REMARK  196  A    between atoms: _479  and  _480
REMARK  197  A    between atoms: _483  and  _485
REMARK  198  A    between atoms: _485  and  _486
REMARK  199  A    between atoms: _485  and  _488
REMARK  200  A    between atoms: _488  and  _489
REMARK  201  A    between atoms: _492  and  _494
REMARK  202  A    between atoms: _494  and  _495
REMARK  203  A    between atoms: _494  and  _497
REMARK  204  A    between atoms: _497  and  _498
REMARK  205  A    between atoms: _501  and  _503
REMARK  206  A    between atoms: _503  and  _504
REMARK  207  A    between atoms: _503  and  _506
REMARK  208  A    between atoms: _506  and  _507
REMARK  209  A    between atoms: _512  and  _514
REMARK  210  A    between atoms: _514  and  _515
REMARK  211  A    between atoms: _514  and  _517
REMARK  212  A    between atoms: _517  and  _518
REMARK  213  A    between atoms: _523  and  _525
REMARK  214  A    between atoms: _525  and  _526
REMARK  215  A    between atoms: _529  and  _531
REMARK  216  A    between atoms: _531  and  _532
REMARK  217  A    between atoms: _531  and  _534
REMARK  218  A    between atoms: _534  and  _535
REMARK  219  A    between atoms: _535  and  _536
REMARK  220  A    between atoms: _539  and  _541
REMARK  221  A    between atoms: _541  and  _542
REMARK  222  A    between atoms: _541  and  _544
REMARK  223  A    between atoms: _544  and  _545
REMARK  224  A    between atoms: _545  and  _546
REMARK  225  A    between atoms: _546  and  _547
REMARK  226  A    between atoms: _547  and  _548
REMARK  227  A    between atoms: _552  and  _554
REMARK  228  A    between atoms: _554  and  _555
REMARK  229  A    between atoms: _554  and  _557
REMARK  230  A    between atoms: _557  and  _558
REMARK  231  A    between atoms: _560  and  _562
REMARK  232  A    between atoms: _562  and  _563
REMARK  233  A    between atoms: _565  and  _567
REMARK  234  A    between atoms: _567  and  _568
REMARK  235  A    between atoms: _567  and  _570
REMARK  236  A    between atoms: _570  and  _571
REMARK  237  A    between atoms: _574  and  _576
REMARK  238  A    between atoms: _576  and  _577
REMARK  239  A    between atoms: _576  and  _579
REMARK  240  A    between atoms: _579  and  _580
REMARK  241  A    between atoms: _580  and  _581
REMARK  242  A    between atoms: _584  and  _586
REMARK  243  A    between atoms: _586  and  _587
REMARK  244  A    between atoms: _586  and  _589
REMARK  245  A    between atoms: _589  and  _590
REMARK  246  A    between atoms: _590  and  _591
REMARK  247  A    between atoms: _591  and  _592
REMARK  248  A    between atoms: _601  and  _603
REMARK  249  A    between atoms: _603  and  _604
REMARK  250  A    between atoms: _603  and  _606
REMARK  251  A    between atoms: _606  and  _607
REMARK  252  A    between atoms: _612  and  _613
REMARK  253  A    between atoms: _615  and  _617
REMARK  254  A    between atoms: _617  and  _618
REMARK  255  A    between atoms: _617  and  _620
REMARK  256  A    between atoms: _620  and  _621
REMARK  257  A    between atoms: _621  and  _622
REMARK  258  A    between atoms: _625  and  _627
REMARK  259  A    between atoms: _627  and  _628
REMARK  260  A    between atoms: _627  and  _630
REMARK  261  A    between atoms: _630  and  _631
REMARK  262  A    between atoms: _634  and  _636
REMARK  263  A    between atoms: _636  and  _637
REMARK  264  A    between atoms: _636  and  _639
REMARK  265  A    between atoms: _639  and  _640
REMARK  266  A    between atoms: _646  and  _648
REMARK  267  A    between atoms: _648  and  _649
REMARK  268  A    between atoms: _648  and  _651
REMARK  269  A    between atoms: _651  and  _652
REMARK  270  A    between atoms: _652  and  _653
REMARK  271  A    between atoms: _658  and  _660
REMARK  272  A    between atoms: _660  and  _661
REMARK  273  A    between atoms: _660  and  _663
REMARK  274  A    between atoms: _666  and  _668
REMARK  275  A    between atoms: _668  and  _669
REMARK  276  A    between atoms: _668  and  _671
REMARK  277  A    between atoms: _671  and  _672
REMARK  278  A    between atoms: _678  and  _680
REMARK  279  A    between atoms: _680  and  _681
REMARK  280  A    between atoms: _680  and  _683
REMARK  281  A    between atoms: _686  and  _688
REMARK  282  A    between atoms: _688  and  _689
REMARK  283  A    between atoms: _688  and  _691
REMARK  284  A    between atoms: _691  and  _692
REMARK  285  A    between atoms: _695  and  _697
REMARK  286  A    between atoms: _697  and  _698
REMARK  287  A    between atoms: _697  and  _700
REMARK  288  A    between atoms: _700  and  _701
REMARK  289  A    between atoms: _706  and  _708
REMARK  290  A    between atoms: _708  and  _709
REMARK  291  A    between atoms: _708  and  _711
REMARK  292  A    between atoms: _711  and  _712
REMARK  293  A    between atoms: _712  and  _713
REMARK  294  A    between atoms: _713  and  _714
REMARK  295  A    between atoms: _714  and  _715
REMARK  296  A    between atoms: _719  and  _721
REMARK  297  A    between atoms: _721  and  _722
REMARK  298  A    between atoms: _724  and  _726
REMARK  299  A    between atoms: _726  and  _727
REMARK  300  A    between atoms: _726  and  _729
REMARK  301  A    between atoms: _729  and  _730
REMARK  302  A    between atoms: _733  and  _735
REMARK  303  A    between atoms: _735  and  _736
REMARK  304  A    between atoms: _735  and  _738
REMARK  305  A    between atoms: _738  and  _739
REMARK  306  A    between atoms: _739  and  _740
REMARK  307  A    between atoms: _745  and  _747
REMARK  308  A    between atoms: _747  and  _748
REMARK  309  A    between atoms: _747  and  _750
REMARK  310  A    between atoms: _750  and  _751
REMARK  311  A    between atoms: _751  and  _752
REMARK  312  A    between atoms: _755  and  _757
REMARK  313  A    between atoms: _757  and  _758
REMARK  314  A    between atoms: _757  and  _760
REMARK  315  A    between atoms: _763  and  _765
REMARK  316  A    between atoms: _765  and  _766
REMARK  317  A    between atoms: _765  and  _768
REMARK  318  A    between atoms: _768  and  _769
REMARK  319  A    between atoms: _769  and  _770
REMARK                            x       y       z     vdW  Elec       q    Type
REMARK                         _______ _______ _______ _____ _____    ______ ____
ROOT
ATOM      1  O   HOH     1      -3.800   1.450 153.007  0.00  0.00    +0.000 OA
ENDROOT
TORSDOF 0
REMARK  Name = ../refined-set-2016/3tmk/3tmk_pocket.pdb
REMARK  319 active torsions:
REMARK  status: ('A' for Active; 'I' for Inactive)
REMARK    1  A    between atoms: _1  and  _3
REMARK    2  A    between atoms: _3  and  _4
REMARK    3  A    between atoms: _3  and  _6
REMARK    4  A    between atoms: _6  and  _7
REMARK    5  A    between atoms: _10  and  _12
REMARK    6  A    between atoms: _12  and  _13
REMARK    7  A    between atoms: _12  and  _15
REMARK    8  A    between atoms: _15  and  _16
REMARK    9  A    between atoms: _16  and  _17
REMARK   10  A    between atoms: _20  and  _22
REMARK   11  A    between atoms: _22  and  _23
REMARK   12  A    between atoms: _25  and  _27
REMARK   13  A    between atoms: _27  and  _28
REMARK   14  A    between atoms: _27  and  _30
REMARK   15  A    between atoms: _30  and  _31
REMARK   16  A    between atoms: _34  and  _36
REMARK   17  A    between atoms: _36  and  _37
REMARK   18  A    between atoms: _36  and  _39
REMARK   19  A    between atoms: _39  and  _40
REMARK   20  A    between atoms: _43  and  _45
REMARK   21  A    between atoms: _45  and  _46
REMARK   22  A    between atoms: _45  and  _48
REMARK   23  A    between atoms: _48  and  _49
REMARK   24  A    between atoms: _49  and  _50
REMARK   25  A    between atoms: _50  and  _51
REMARK   26  A    between atoms: _60  and  _62
REMARK   27  A    between atoms: _62  and  _63
REMARK   28  A    between atoms: _62  and  _65
REMARK   29  A    between atoms: _65  and  _66
REMARK   30  A    between atoms: _69  and  _71
REMARK   31  A    between atoms: _71  and  _72
REMARK   32  A    between atoms: _74  and  _76
REMARK   33  A    between atoms: _76  and  _77
REMARK   34  A    between atoms: _76  and  _79
REMARK   35  A    between atoms: _79  and  _80
REMARK   36  A    between atoms: _80  and  _81
REMARK   37  A    between atoms: _81  and  _82
REMARK   38  A    between atoms: _82  and  _83
REMARK   39  A    between atoms: _87  and  _89
REMARK   40  A    between atoms: _89  and  _90
REMARK   41  A    between atoms: _89  and  _92
REMARK   42  A    between atoms: _92  and  _93
REMARK   43  A    between atoms: _96  and  _98
REMARK   44  A    between atoms: _98  and  _99
REMARK   45  A    between atoms: _98  and  _101
REMARK   46  A    between atoms: _101  and  _102
REMARK   47  A    between atoms: _105  and  _107
REMARK   48  A    between atoms: _107  and  _108
REMARK   49  A    between atoms: _107  and  _110
REMARK   50  A    between atoms: _110  and  _111
REMARK   51  A    between atoms: _111  and  _112
REMARK   52  A    between atoms: _117  and  _119
REMARK   53  A    between atoms: _119  and  _120
REMARK   54  A    between atoms: _119  and  _122
REMARK   55  A    between atoms: _124  and  _126
REMARK   56  A    between atoms: _126  and  _127
REMARK   57  A    between atoms: _126  and  _129
REMARK   58  A    between atoms: _129  and  _130
REMARK   59  A    between atoms: _135  and  _137
REMARK   60  A    between atoms: _137  and  _138
REMARK   61  A    between atoms: _137  and  _140
REMARK   62  A    between atoms: _140  and  _141
REMARK   63  A    between atoms: _144  and  _146
REMARK   64  A    between atoms: _146  and  _147
REMARK   65  A    between atoms: _146  and  _149
REMARK   66  A    between atoms: _149  and  _150
REMARK   67  A    between atoms: _150  and  _151
REMARK   68  A    between atoms: _151  and  _152
REMARK   69  A    between atoms: _152  and  _153
REMARK   70  A    between atoms: _157  and  _159
REMARK   71  A    between atoms: _159  and  _160
REMARK   72  A    between atoms: _159  and  _162
REMARK   73  A    between atoms: _162  and  _163
REMARK   74  A    between atoms: _170  and  _171
REMARK   75  A    between atoms: _176  and  _178
REMARK   76  A    between atoms: _178  and  _179
REMARK   77  A    between atoms: _178  and  _181
REMARK   78  A    between atoms: _181  and  _182
REMARK   79  A    between atoms: _182  and  _183
REMARK   80  A    between atoms: _186  and  _188
REMARK   81  A    between atoms: _188  and  _189
REMARK   82  A    between atoms: _188  and  _191
REMARK   83  A    between atoms: _191  and  _192
REMARK   84  A    between atoms: _192  and  _193
REMARK   85  A    between atoms: _193  and  _194
REMARK   86  A    between atoms: _203  and  _205
REMARK   87  A    between atoms: _205  and  _206
REMARK   88  A    between atoms: _205  and  _208
REMARK   89  A    between atoms: _208  and  _209
REMARK   90  A    between atoms: _212  and  _214
REMARK   91  A    between atoms: _214  and  _215
REMARK   92  A    between atoms: _214  and  _217
REMARK   93  A    between atoms: _217  and  _218
REMARK   94  A    between atoms: _223  and  _225
REMARK   95  A    between atoms: _225  and  _226
REMARK   96  A    between atoms: _225  and  _228
REMARK   97  A    between atoms: _228  and  _229
REMARK   98  A    between atoms: _234  and  _235
REMARK   99  A    between atoms: _237  and  _239
REMARK  100  A    between atoms: _239  and  _240
REMARK  101  A    between atoms: _239  and  _242
REMARK  102  A    between atoms: _242  and  _243
REMARK  103  A    between atoms: _246  and  _248
REMARK  104  A    between atoms: _248  and  _249
REMARK  105  A    between atoms: _248  and  _251
REMARK  106  A    between atoms: _251  and  _252
REMARK  107  A    between atoms: _255  and  _257
REMARK  108  A    between atoms: _257  and  _258
REMARK  109  A    between atoms: _257  and  _260
REMARK  110  A    between atoms: _260  and  _261
REMARK  111  A    between atoms: _264  and  _266
REMARK  112  A    between atoms: _266  and  _267
REMARK  113  A    between atoms: _266  and  _269
REMARK  114  A    between atoms: _269  and  _270
REMARK  115  A    between atoms: _275  and  _277
REMARK  116  A    between atoms: _277  and  _278
REMARK  117  A    between atoms: _277  and  _280
REMARK  118  A    between atoms: _280  and  _281
REMARK  119  A    between atoms: _284  and  _286
REMARK  120  A    between atoms: _286  and  _287
REMARK  121  A    between atoms: _286  and  _289
REMARK  122  A    between atoms: _289  and  _290
REMARK  123  A    between atoms: _296  and  _298
REMARK  124  A    between atoms: _298  and  _299
REMARK  125  A    between atoms: _298  and  _301
REMARK  126  A    between atoms: _301  and  _302
REMARK  127  A    between atoms: _304  and  _306
REMARK  128  A    between atoms: _306  and  _307
REMARK  129  A    between atoms: _310  and  _312
REMARK  130  A    between atoms: _312  and  _313
REMARK  131  A    between atoms: _312  and  _315
REMARK  132  A    between atoms: _315  and  _316
REMARK  133  A    between atoms: _321  and  _323
REMARK  134  A    between atoms: _323  and  _324
REMARK  135  A    between atoms: _323  and  _326
REMARK  136  A    between atoms: _326  and  _327
REMARK  137  A    between atoms: _327  and  _328
REMARK  138  A    between atoms: _328  and  _329
REMARK  139  A    between atoms: _338  and  _340
REMARK  140  A    between atoms: _340  and  _341
REMARK  141  A    between atoms: _340  and  _343
REMARK  142  A    between atoms: _343  and  _344
REMARK  143  A    between atoms: _347  and  _349
REMARK  144  A    between atoms: _349  and  _350
REMARK  145  A    between atoms: _349  and  _352
REMARK  146  A    between atoms: _352  and  _353
REMARK  147  A    between atoms: _353  and  _354
REMARK  148  A    between atoms: _354  and  _355
REMARK  149  A    between atoms: _364  and  _366
REMARK  150  A    between atoms: _366  and  _367
REMARK  151  A    between atoms: _366  and  _369
REMARK  152  A    between atoms: _369  and  _370
REMARK  153  A    between atoms: _375  and  _376
REMARK  154  A    between atoms: _378  and  _380
REMARK  155  A    between atoms: _380  and  _381
REMARK  156  A    between atoms: _380  and  _383
REMARK  157  A    between atoms: _386  and  _388
REMARK  158  A    between atoms: _388  and  _389
REMARK  159  A    between atoms: _388  and  _391
REMARK  160  A    between atoms: _391  and  _392
REMARK  161  A    between atoms: _397  and  _398
REMARK  162  A    between atoms: _400  and  _402
REMARK  163  A    between atoms: _402  and  _403
REMARK  164  A    between atoms: _402  and  _405
REMARK  165  A    between atoms: _405  and  _406
REMARK  166  A    between atoms: _408  and  _410
REMARK  167  A    between atoms: _410  and  _411
REMARK  168  A    between atoms: _413  and  _415
REMARK  169  A    between atoms: _415  and  _416
REMARK  170  A    between atoms: _415  and  _418
REMARK  171  A    between atoms: _421  and  _423
REMARK  172  A    between atoms: _423  and  _424
REMARK  173  A    between atoms: _427  and  _429
REMARK  174  A    between atoms: _429  and  _430
REMARK  175  A    between atoms: _429  and  _432
REMARK  176  A    between atoms: _432  and  _433
REMARK  177  A    between atoms: _438  and  _439
REMARK  178  A    between atoms: _441  and  _443
REMARK  179  A    between atoms: _443  and  _444
REMARK  180  A    between atoms: _443  and  _446
REMARK  181  A    between atoms: _446  and  _447
REMARK  182  A    between atoms: _449  and  _451
REMARK  183  A    between atoms: _451  and  _452
REMARK  184  A    between atoms: _455  and  _457
REMARK  185  A    between atoms: _457  and  _458
REMARK  186  A    between atoms: _461  and  _463
REMARK  187  A    between atoms: _463  and  _464
REMARK  188  A    between atoms: _463  and  _466
REMARK  189  A    between atoms: _466  and  _467
REMARK  190  A    between atoms: _467  and  _468
REMARK  191  A    between atoms: _468  and  _469
REMARK  192  A    between atoms: _469  and  _470
REMARK  193  A    between atoms: _474  and  _476
REMARK  194  A    between atoms: _476  and  _477
REMARK  195  A    between atoms: _476  and  _479
REMARK  196  A    between atoms: _479  and  _480
REMARK  197  A    between atoms: _483  and  _485
REMARK  198  A    between atoms: _485  and  _486
REMARK  199  A    between atoms: _485  and  _488
REMARK  200  A    between atoms: _488  and  _489
REMARK  201  A    between atoms: _492  and  _494
REMARK  202  A    between atoms: _494  and  _495
REMARK  203  A    between atoms: _494  and  _497
REMARK  204  A    between atoms: _497  and  _498
REMARK  205  A    between atoms: _501  and  _503
REMARK  206  A    between atoms: _503  and  _504
REMARK  207  A    between atoms: _503  and  _506
REMARK  208  A    between atoms: _506  and  _507
REMARK  209  A    between atoms: _512  and  _514
REMARK  210  A    between atoms: _514  and  _515
REMARK  211  A    between atoms: _514  and  _517
REMARK  212  A    between atoms: _517  and  _518
REMARK  213  A    between atoms: _523  and  _525
REMARK  214  A    between atoms: _525  and  _526
REMARK  215  A    between atoms: _529  and  _531
REMARK  216  A    between atoms: _531  and  _532
REMARK  217  A    between atoms: _531  and  _534
REMARK  218  A    between atoms: _534  and  _535
REMARK  219  A    between atoms: _535  and  _536
REMARK  220  A    between atoms: _539  and  _541
REMARK  221  A    between atoms: _541  and  _542
REMARK  222  A    between atoms: _541  and  _544
REMARK  223  A    between atoms: _544  and  _545
REMARK  224  A    between atoms: _545  and  _546
REMARK  225  A    between atoms: _546  and  _547
REMARK  226  A    between atoms: _547  and  _548
REMARK  227  A    between atoms: _552  and  _554
REMARK  228  A    between atoms: _554  and  _555
REMARK  229  A    between atoms: _554  and  _557
REMARK  230  A    between atoms: _557  and  _558
REMARK  231  A    between atoms: _560  and  _562
REMARK  232  A    between atoms: _562  and  _563
REMARK  233  A    between atoms: _565  and  _567
REMARK  234  A    between atoms: _567  and  _568
REMARK  235  A    between atoms: _567  and  _570
REMARK  236  A    between atoms: _570  and  _571
REMARK  237  A    between atoms: _574  and  _576
REMARK  238  A    between atoms: _576  and  _577
REMARK  239  A    between atoms: _576  and  _579
REMARK  240  A    between atoms: _579  and  _580
REMARK  241  A    between atoms: _580  and  _581
REMARK  242  A    between atoms: _584  and  _586
REMARK  243  A    between atoms: _586  and  _587
REMARK  244  A    between atoms: _586  and  _589
REMARK  245  A    between atoms: _589  and  _590
REMARK  246  A    between atoms: _590  and  _591
REMARK  247  A    between atoms: _591  and  _592
REMARK  248  A    between atoms: _601  and  _603
REMARK  249  A    between atoms: _603  and  _604
REMARK  250  A    between atoms: _603  and  _606
REMARK  251  A    between atoms: _606  and  _607
REMARK  252  A    between atoms: _612  and  _613
REMARK  253  A    between atoms: _615  and  _617
REMARK  254  A    between atoms: _617  and  _618
REMARK  255  A    between atoms: _617  and  _620
REMARK  256  A    between atoms: _620  and  _621
REMARK  257  A    between atoms: _621  and  _622
REMARK  258  A    between atoms: _625  and  _627
REMARK  259  A    between atoms: _627  and  _628
REMARK  260  A    between atoms: _627  and  _630
REMARK  261  A    between atoms: _630  and  _631
REMARK  262  A    between atoms: _634  and  _636
REMARK  263  A    between atoms: _636  and  _637
REMARK  264  A    between atoms: _636  and  _639
REMARK  265  A    between atoms: _639  and  _640
REMARK  266  A    between atoms: _646  and  _648
REMARK  267  A    between atoms: _648  and  _649
REMARK  268  A    between atoms: _648  and  _651
REMARK  269  A    between atoms: _651  and  _652
REMARK  270  A    between atoms: _652  and  _653
REMARK  271  A    between atoms: _658  and  _660
REMARK  272  A    between atoms: _660  and  _661
REMARK  273  A    between atoms: _660  and  _663
REMARK  274  A    between atoms: _666  and  _668
REMARK  275  A    between atoms: _668  and  _669
REMARK  276  A    between atoms: _668  and  _671
REMARK  277  A    between atoms: _671  and  _672
REMARK  278  A    between atoms: _678  and  _680
REMARK  279  A    between atoms: _680  and  _681
REMARK  280  A    between atoms: _680  and  _683
REMARK  281  A    between atoms: _686  and  _688
REMARK  282  A    between atoms: _688  and  _689
REMARK  283  A    between atoms: _688  and  _691
REMARK  284  A    between atoms: _691  and  _692
REMARK  285  A    between atoms: _695  and  _697
REMARK  286  A    between atoms: _697  and  _698
REMARK  287  A    between atoms: _697  and  _700
REMARK  288  A    between atoms: _700  and  _701
REMARK  289  A    between atoms: _706  and  _708
REMARK  290  A    between atoms: _708  and  _709
REMARK  291  A    between atoms: _708  and  _711
REMARK  292  A    between atoms: _711  and  _712
REMARK  293  A    between atoms: _712  and  _713
REMARK  294  A    between atoms: _713  and  _714
REMARK  295  A    between atoms: _714  and  _715
REMARK  296  A    between atoms: _719  and  _721
REMARK  297  A    between atoms: _721  and  _722
REMARK  298  A    between atoms: _724  and  _726
REMARK  299  A    between atoms: _726  and  _727
REMARK  300  A    between atoms: _726  and  _729
REMARK  301  A    between atoms: _729  and  _730
REMARK  302  A    between atoms: _733  and  _735
REMARK  303  A    between atoms: _735  and  _736
REMARK  304  A    between atoms: _735  and  _738
REMARK  305  A    between atoms: _738  and  _739
REMARK  306  A    between atoms: _739  and  _740
REMARK  307  A    between atoms: _745  and  _747
REMARK  308  A    between atoms: _747  and  _748
REMARK  309  A    between atoms: _747  and  _750
REMARK  310  A    between atoms: _750  and  _751
REMARK  311  A    between atoms: _751  and  _752
REMARK  312  A    between atoms: _755  and  _757
REMARK  313  A    between atoms: _757  and  _758
REMARK  314  A    between atoms: _757  and  _760
REMARK  315  A    between atoms: _763  and  _765
REMARK  316  A    between atoms: _765  and  _766
REMARK  317  A    between atoms: _765  and  _768
REMARK  318  A    between atoms: _768  and  _769
REMARK  319  A    between atoms: _769  and  _770
REMARK                            x       y       z     vdW  Elec       q    Type
REMARK                         _______ _______ _______ _____ _____    ______ ____
ROOT
ATOM      1  O   HOH     1       2.307   0.606 148.245  0.00  0.00    +0.000 OA
ENDROOT
TORSDOF 0
REMARK  Name = ../refined-set-2016/3tmk/3tmk_pocket.pdb
REMARK  319 active torsions:
REMARK  status: ('A' for Active; 'I' for Inactive)
REMARK    1  A    between atoms: _1  and  _3
REMARK    2  A    between atoms: _3  and  _4
REMARK    3  A    between atoms: _3  and  _6
REMARK    4  A    between atoms: _6  and  _7
REMARK    5  A    between atoms: _10  and  _12
REMARK    6  A    between atoms: _12  and  _13
REMARK    7  A    between atoms: _12  and  _15
REMARK    8  A    between atoms: _15  and  _16
REMARK    9  A    between atoms: _16  and  _17
REMARK   10  A    between atoms: _20  and  _22
REMARK   11  A    between atoms: _22  and  _23
REMARK   12  A    between atoms: _25  and  _27
REMARK   13  A    between atoms: _27  and  _28
REMARK   14  A    between atoms: _27  and  _30
REMARK   15  A    between atoms: _30  and  _31
REMARK   16  A    between atoms: _34  and  _36
REMARK   17  A    between atoms: _36  and  _37
REMARK   18  A    between atoms: _36  and  _39
REMARK   19  A    between atoms: _39  and  _40
REMARK   20  A    between atoms: _43  and  _45
REMARK   21  A    between atoms: _45  and  _46
REMARK   22  A    between atoms: _45  and  _48
REMARK   23  A    between atoms: _48  and  _49
REMARK   24  A    between atoms: _49  and  _50
REMARK   25  A    between atoms: _50  and  _51
REMARK   26  A    between atoms: _60  and  _62
REMARK   27  A    between atoms: _62  and  _63
REMARK   28  A    between atoms: _62  and  _65
REMARK   29  A    between atoms: _65  and  _66
REMARK   30  A    between atoms: _69  and  _71
REMARK   31  A    between atoms: _71  and  _72
REMARK   32  A    between atoms: _74  and  _76
REMARK   33  A    between atoms: _76  and  _77
REMARK   34  A    between atoms: _76  and  _79
REMARK   35  A    between atoms: _79  and  _80
REMARK   36  A    between atoms: _80  and  _81
REMARK   37  A    between atoms: _81  and  _82
REMARK   38  A    between atoms: _82  and  _83
REMARK   39  A    between atoms: _87  and  _89
REMARK   40  A    between atoms: _89  and  _90
REMARK   41  A    between atoms: _89  and  _92
REMARK   42  A    between atoms: _92  and  _93
REMARK   43  A    between atoms: _96  and  _98
REMARK   44  A    between atoms: _98  and  _99
REMARK   45  A    between atoms: _98  and  _101
REMARK   46  A    between atoms: _101  and  _102
REMARK   47  A    between atoms: _105  and  _107
REMARK   48  A    between atoms: _107  and  _108
REMARK   49  A    between atoms: _107  and  _110
REMARK   50  A    between atoms: _110  and  _111
REMARK   51  A    between atoms: _111  and  _112
REMARK   52  A    between atoms: _117  and  _119
REMARK   53  A    between atoms: _119  and  _120
REMARK   54  A    between atoms: _119  and  _122
REMARK   55  A    between atoms: _124  and  _126
REMARK   56  A    between atoms: _126  and  _127
REMARK   57  A    between atoms: _126  and  _129
REMARK   58  A    between atoms: _129  and  _130
REMARK   59  A    between atoms: _135  and  _137
REMARK   60  A    between atoms: _137  and  _138
REMARK   61  A    between atoms: _137  and  _140
REMARK   62  A    between atoms: _140  and  _141
REMARK   63  A    between atoms: _144  and  _146
REMARK   64  A    between atoms: _146  and  _147
REMARK   65  A    between atoms: _146  and  _149
REMARK   66  A    between atoms: _149  and  _150
REMARK   67  A    between atoms: _150  and  _151
REMARK   68  A    between atoms: _151  and  _152
REMARK   69  A    between atoms: _152  and  _153
REMARK   70  A    between atoms: _157  and  _159
REMARK   71  A    between atoms: _159  and  _160
REMARK   72  A    between atoms: _159  and  _162
REMARK   73  A    between atoms: _162  and  _163
REMARK   74  A    between atoms: _170  and  _171
REMARK   75  A    between atoms: _176  and  _178
REMARK   76  A    between atoms: _178  and  _179
REMARK   77  A    between atoms: _178  and  _181
REMARK   78  A    between atoms: _181  and  _182
REMARK   79  A    between atoms: _182  and  _183
REMARK   80  A    between atoms: _186  and  _188
REMARK   81  A    between atoms: _188  and  _189
REMARK   82  A    between atoms: _188  and  _191
REMARK   83  A    between atoms: _191  and  _192
REMARK   84  A    between atoms: _192  and  _193
REMARK   85  A    between atoms: _193  and  _194
REMARK   86  A    between atoms: _203  and  _205
REMARK   87  A    between atoms: _205  and  _206
REMARK   88  A    between atoms: _205  and  _208
REMARK   89  A    between atoms: _208  and  _209
REMARK   90  A    between atoms: _212  and  _214
REMARK   91  A    between atoms: _214  and  _215
REMARK   92  A    between atoms: _214  and  _217
REMARK   93  A    between atoms: _217  and  _218
REMARK   94  A    between atoms: _223  and  _225
REMARK   95  A    between atoms: _225  and  _226
REMARK   96  A    between atoms: _225  and  _228
REMARK   97  A    between atoms: _228  and  _229
REMARK   98  A    between atoms: _234  and  _235
REMARK   99  A    between atoms: _237  and  _239
REMARK  100  A    between atoms: _239  and  _240
REMARK  101  A    between atoms: _239  and  _242
REMARK  102  A    between atoms: _242  and  _243
REMARK  103  A    between atoms: _246  and  _248
REMARK  104  A    between atoms: _248  and  _249
REMARK  105  A    between atoms: _248  and  _251
REMARK  106  A    between atoms: _251  and  _252
REMARK  107  A    between atoms: _255  and  _257
REMARK  108  A    between atoms: _257  and  _258
REMARK  109  A    between atoms: _257  and  _260
REMARK  110  A    between atoms: _260  and  _261
REMARK  111  A    between atoms: _264  and  _266
REMARK  112  A    between atoms: _266  and  _267
REMARK  113  A    between atoms: _266  and  _269
REMARK  114  A    between atoms: _269  and  _270
REMARK  115  A    between atoms: _275  and  _277
REMARK  116  A    between atoms: _277  and  _278
REMARK  117  A    between atoms: _277  and  _280
REMARK  118  A    between atoms: _280  and  _281
REMARK  119  A    between atoms: _284  and  _286
REMARK  120  A    between atoms: _286  and  _287
REMARK  121  A    between atoms: _286  and  _289
REMARK  122  A    between atoms: _289  and  _290
REMARK  123  A    between atoms: _296  and  _298
REMARK  124  A    between atoms: _298  and  _299
REMARK  125  A    between atoms: _298  and  _301
REMARK  126  A    between atoms: _301  and  _302
REMARK  127  A    between atoms: _304  and  _306
REMARK  128  A    between atoms: _306  and  _307
REMARK  129  A    between atoms: _310  and  _312
REMARK  130  A    between atoms: _312  and  _313
REMARK  131  A    between atoms: _312  and  _315
REMARK  132  A    between atoms: _315  and  _316
REMARK  133  A    between atoms: _321  and  _323
REMARK  134  A    between atoms: _323  and  _324
REMARK  135  A    between atoms: _323  and  _326
REMARK  136  A    between atoms: _326  and  _327
REMARK  137  A    between atoms: _327  and  _328
REMARK  138  A    between atoms: _328  and  _329
REMARK  139  A    between atoms: _338  and  _340
REMARK  140  A    between atoms: _340  and  _341
REMARK  141  A    between atoms: _340  and  _343
REMARK  142  A    between atoms: _343  and  _344
REMARK  143  A    between atoms: _347  and  _349
REMARK  144  A    between atoms: _349  and  _350
REMARK  145  A    between atoms: _349  and  _352
REMARK  146  A    between atoms: _352  and  _353
REMARK  147  A    between atoms: _353  and  _354
REMARK  148  A    between atoms: _354  and  _355
REMARK  149  A    between atoms: _364  and  _366
REMARK  150  A    between atoms: _366  and  _367
REMARK  151  A    between atoms: _366  and  _369
REMARK  152  A    between atoms: _369  and  _370
REMARK  153  A    between atoms: _375  and  _376
REMARK  154  A    between atoms: _378  and  _380
REMARK  155  A    between atoms: _380  and  _381
REMARK  156  A    between atoms: _380  and  _383
REMARK  157  A    between atoms: _386  and  _388
REMARK  158  A    between atoms: _388  and  _389
REMARK  159  A    between atoms: _388  and  _391
REMARK  160  A    between atoms: _391  and  _392
REMARK  161  A    between atoms: _397  and  _398
REMARK  162  A    between atoms: _400  and  _402
REMARK  163  A    between atoms: _402  and  _403
REMARK  164  A    between atoms: _402  and  _405
REMARK  165  A    between atoms: _405  and  _406
REMARK  166  A    between atoms: _408  and  _410
REMARK  167  A    between atoms: _410  and  _411
REMARK  168  A    between atoms: _413  and  _415
REMARK  169  A    between atoms: _415  and  _416
REMARK  170  A    between atoms: _415  and  _418
REMARK  171  A    between atoms: _421  and  _423
REMARK  172  A    between atoms: _423  and  _424
REMARK  173  A    between atoms: _427  and  _429
REMARK  174  A    between atoms: _429  and  _430
REMARK  175  A    between atoms: _429  and  _432
REMARK  176  A    between atoms: _432  and  _433
REMARK  177  A    between atoms: _438  and  _439
REMARK  178  A    between atoms: _441  and  _443
REMARK  179  A    between atoms: _443  and  _444
REMARK  180  A    between atoms: _443  and  _446
REMARK  181  A    between atoms: _446  and  _447
REMARK  182  A    between atoms: _449  and  _451
REMARK  183  A    between atoms: _451  and  _452
REMARK  184  A    between atoms: _455  and  _457
REMARK  185  A    between atoms: _457  and  _458
REMARK  186  A    between atoms: _461  and  _463
REMARK  187  A    between atoms: _463  and  _464
REMARK  188  A    between atoms: _463  and  _466
REMARK  189  A    between atoms: _466  and  _467
REMARK  190  A    between atoms: _467  and  _468
REMARK  191  A    between atoms: _468  and  _469
REMARK  192  A    between atoms: _469  and  _470
REMARK  193  A    between atoms: _474  and  _476
REMARK  194  A    between atoms: _476  and  _477
REMARK  195  A    between atoms: _476  and  _479
REMARK  196  A    between atoms: _479  and  _480
REMARK  197  A    between atoms: _483  and  _485
REMARK  198  A    between atoms: _485  and  _486
REMARK  199  A    between atoms: _485  and  _488
REMARK  200  A    between atoms: _488  and  _489
REMARK  201  A    between atoms: _492  and  _494
REMARK  202  A    between atoms: _494  and  _495
REMARK  203  A    between atoms: _494  and  _497
REMARK  204  A    between atoms: _497  and  _498
REMARK  205  A    between atoms: _501  and  _503
REMARK  206  A    between atoms: _503  and  _504
REMARK  207  A    between atoms: _503  and  _506
REMARK  208  A    between atoms: _506  and  _507
REMARK  209  A    between atoms: _512  and  _514
REMARK  210  A    between atoms: _514  and  _515
REMARK  211  A    between atoms: _514  and  _517
REMARK  212  A    between atoms: _517  and  _518
REMARK  213  A    between atoms: _523  and  _525
REMARK  214  A    between atoms: _525  and  _526
REMARK  215  A    between atoms: _529  and  _531
REMARK  216  A    between atoms: _531  and  _532
REMARK  217  A    between atoms: _531  and  _534
REMARK  218  A    between atoms: _534  and  _535
REMARK  219  A    between atoms: _535  and  _536
REMARK  220  A    between atoms: _539  and  _541
REMARK  221  A    between atoms: _541  and  _542
REMARK  222  A    between atoms: _541  and  _544
REMARK  223  A    between atoms: _544  and  _545
REMARK  224  A    between atoms: _545  and  _546
REMARK  225  A    between atoms: _546  and  _547
REMARK  226  A    between atoms: _547  and  _548
REMARK  227  A    between atoms: _552  and  _554
REMARK  228  A    between atoms: _554  and  _555
REMARK  229  A    between atoms: _554  and  _557
REMARK  230  A    between atoms: _557  and  _558
REMARK  231  A    between atoms: _560  and  _562
REMARK  232  A    between atoms: _562  and  _563
REMARK  233  A    between atoms: _565  and  _567
REMARK  234  A    between atoms: _567  and  _568
REMARK  235  A    between atoms: _567  and  _570
REMARK  236  A    between atoms: _570  and  _571
REMARK  237  A    between atoms: _574  and  _576
REMARK  238  A    between atoms: _576  and  _577
REMARK  239  A    between atoms: _576  and  _579
REMARK  240  A    between atoms: _579  and  _580
REMARK  241  A    between atoms: _580  and  _581
REMARK  242  A    between atoms: _584  and  _586
REMARK  243  A    between atoms: _586  and  _587
REMARK  244  A    between atoms: _586  and  _589
REMARK  245  A    between atoms: _589  and  _590
REMARK  246  A    between atoms: _590  and  _591
REMARK  247  A    between atoms: _591  and  _592
REMARK  248  A    between atoms: _601  and  _603
REMARK  249  A    between atoms: _603  and  _604
REMARK  250  A    between atoms: _603  and  _606
REMARK  251  A    between atoms: _606  and  _607
REMARK  252  A    between atoms: _612  and  _613
REMARK  253  A    between atoms: _615  and  _617
REMARK  254  A    between atoms: _617  and  _618
REMARK  255  A    between atoms: _617  and  _620
REMARK  256  A    between atoms: _620  and  _621
REMARK  257  A    between atoms: _621  and  _622
REMARK  258  A    between atoms: _625  and  _627
REMARK  259  A    between atoms: _627  and  _628
REMARK  260  A    between atoms: _627  and  _630
REMARK  261  A    between atoms: _630  and  _631
REMARK  262  A    between atoms: _634  and  _636
REMARK  263  A    between atoms: _636  and  _637
REMARK  264  A    between atoms: _636  and  _639
REMARK  265  A    between atoms: _639  and  _640
REMARK  266  A    between atoms: _646  and  _648
REMARK  267  A    between atoms: _648  and  _649
REMARK  268  A    between atoms: _648  and  _651
REMARK  269  A    between atoms: _651  and  _652
REMARK  270  A    between atoms: _652  and  _653
REMARK  271  A    between atoms: _658  and  _660
REMARK  272  A    between atoms: _660  and  _661
REMARK  273  A    between atoms: _660  and  _663
REMARK  274  A    between atoms: _666  and  _668
REMARK  275  A    between atoms: _668  and  _669
REMARK  276  A    between atoms: _668  and  _671
REMARK  277  A    between atoms: _671  and  _672
REMARK  278  A    between atoms: _678  and  _680
REMARK  279  A    between atoms: _680  and  _681
REMARK  280  A    between atoms: _680  and  _683
REMARK  281  A    between atoms: _686  and  _688
REMARK  282  A    between atoms: _688  and  _689
REMARK  283  A    between atoms: _688  and  _691
REMARK  284  A    between atoms: _691  and  _692
REMARK  285  A    between atoms: _695  and  _697
REMARK  286  A    between atoms: _697  and  _698
REMARK  287  A    between atoms: _697  and  _700
REMARK  288  A    between atoms: _700  and  _701
REMARK  289  A    between atoms: _706  and  _708
REMARK  290  A    between atoms: _708  and  _709
REMARK  291  A    between atoms: _708  and  _711
REMARK  292  A    between atoms: _711  and  _712
REMARK  293  A    between atoms: _712  and  _713
REMARK  294  A    between atoms: _713  and  _714
REMARK  295  A    between atoms: _714  and  _715
REMARK  296  A    between atoms: _719  and  _721
REMARK  297  A    between atoms: _721  and  _722
REMARK  298  A    between atoms: _724  and  _726
REMARK  299  A    between atoms: _726  and  _727
REMARK  300  A    between atoms: _726  and  _729
REMARK  301  A    between atoms: _729  and  _730
REMARK  302  A    between atoms: _733  and  _735
REMARK  303  A    between atoms: _735  and  _736
REMARK  304  A    between atoms: _735  and  _738
REMARK  305  A    between atoms: _738  and  _739
REMARK  306  A    between atoms: _739  and  _740
REMARK  307  A    between atoms: _745  and  _747
REMARK  308  A    between atoms: _747  and  _748
REMARK  309  A    between atoms: _747  and  _750
REMARK  310  A    between atoms: _750  and  _751
REMARK  311  A    between atoms: _751  and  _752
REMARK  312  A    between atoms: _755  and  _757
REMARK  313  A    between atoms: _757  and  _758
REMARK  314  A    between atoms: _757  and  _760
REMARK  315  A    between atoms: _763  and  _765
REMARK  316  A    between atoms: _765  and  _766
REMARK  317  A    between atoms: _765  and  _768
REMARK  318  A    between atoms: _768  and  _769
REMARK  319  A    between atoms: _769  and  _770
REMARK                            x       y       z     vdW  Elec       q    Type
REMARK                         _______ _______ _______ _____ _____    ______ ____
ROOT
ATOM      1  O   HOH     1      -0.803  -5.652 141.361  0.00  0.00    +0.000 OA
ENDROOT
TORSDOF 0
REMARK  Name = ../refined-set-2016/3tmk/3tmk_pocket.pdb
REMARK  319 active torsions:
REMARK  status: ('A' for Active; 'I' for Inactive)
REMARK    1  A    between atoms: _1  and  _3
REMARK    2  A    between atoms: _3  and  _4
REMARK    3  A    between atoms: _3  and  _6
REMARK    4  A    between atoms: _6  and  _7
REMARK    5  A    between atoms: _10  and  _12
REMARK    6  A    between atoms: _12  and  _13
REMARK    7  A    between atoms: _12  and  _15
REMARK    8  A    between atoms: _15  and  _16
REMARK    9  A    between atoms: _16  and  _17
REMARK   10  A    between atoms: _20  and  _22
REMARK   11  A    between atoms: _22  and  _23
REMARK   12  A    between atoms: _25  and  _27
REMARK   13  A    between atoms: _27  and  _28
REMARK   14  A    between atoms: _27  and  _30
REMARK   15  A    between atoms: _30  and  _31
REMARK   16  A    between atoms: _34  and  _36
REMARK   17  A    between atoms: _36  and  _37
REMARK   18  A    between atoms: _36  and  _39
REMARK   19  A    between atoms: _39  and  _40
REMARK   20  A    between atoms: _43  and  _45
REMARK   21  A    between atoms: _45  and  _46
REMARK   22  A    between atoms: _45  and  _48
REMARK   23  A    between atoms: _48  and  _49
REMARK   24  A    between atoms: _49  and  _50
REMARK   25  A    between atoms: _50  and  _51
REMARK   26  A    between atoms: _60  and  _62
REMARK   27  A    between atoms: _62  and  _63
REMARK   28  A    between atoms: _62  and  _65
REMARK   29  A    between atoms: _65  and  _66
REMARK   30  A    between atoms: _69  and  _71
REMARK   31  A    between atoms: _71  and  _72
REMARK   32  A    between atoms: _74  and  _76
REMARK   33  A    between atoms: _76  and  _77
REMARK   34  A    between atoms: _76  and  _79
REMARK   35  A    between atoms: _79  and  _80
REMARK   36  A    between atoms: _80  and  _81
REMARK   37  A    between atoms: _81  and  _82
REMARK   38  A    between atoms: _82  and  _83
REMARK   39  A    between atoms: _87  and  _89
REMARK   40  A    between atoms: _89  and  _90
REMARK   41  A    between atoms: _89  and  _92
REMARK   42  A    between atoms: _92  and  _93
REMARK   43  A    between atoms: _96  and  _98
REMARK   44  A    between atoms: _98  and  _99
REMARK   45  A    between atoms: _98  and  _101
REMARK   46  A    between atoms: _101  and  _102
REMARK   47  A    between atoms: _105  and  _107
REMARK   48  A    between atoms: _107  and  _108
REMARK   49  A    between atoms: _107  and  _110
REMARK   50  A    between atoms: _110  and  _111
REMARK   51  A    between atoms: _111  and  _112
REMARK   52  A    between atoms: _117  and  _119
REMARK   53  A    between atoms: _119  and  _120
REMARK   54  A    between atoms: _119  and  _122
REMARK   55  A    between atoms: _124  and  _126
REMARK   56  A    between atoms: _126  and  _127
REMARK   57  A    between atoms: _126  and  _129
REMARK   58  A    between atoms: _129  and  _130
REMARK   59  A    between atoms: _135  and  _137
REMARK   60  A    between atoms: _137  and  _138
REMARK   61  A    between atoms: _137  and  _140
REMARK   62  A    between atoms: _140  and  _141
REMARK   63  A    between atoms: _144  and  _146
REMARK   64  A    between atoms: _146  and  _147
REMARK   65  A    between atoms: _146  and  _149
REMARK   66  A    between atoms: _149  and  _150
REMARK   67  A    between atoms: _150  and  _151
REMARK   68  A    between atoms: _151  and  _152
REMARK   69  A    between atoms: _152  and  _153
REMARK   70  A    between atoms: _157  and  _159
REMARK   71  A    between atoms: _159  and  _160
REMARK   72  A    between atoms: _159  and  _162
REMARK   73  A    between atoms: _162  and  _163
REMARK   74  A    between atoms: _170  and  _171
REMARK   75  A    between atoms: _176  and  _178
REMARK   76  A    between atoms: _178  and  _179
REMARK   77  A    between atoms: _178  and  _181
REMARK   78  A    between atoms: _181  and  _182
REMARK   79  A    between atoms: _182  and  _183
REMARK   80  A    between atoms: _186  and  _188
REMARK   81  A    between atoms: _188  and  _189
REMARK   82  A    between atoms: _188  and  _191
REMARK   83  A    between atoms: _191  and  _192
REMARK   84  A    between atoms: _192  and  _193
REMARK   85  A    between atoms: _193  and  _194
REMARK   86  A    between atoms: _203  and  _205
REMARK   87  A    between atoms: _205  and  _206
REMARK   88  A    between atoms: _205  and  _208
REMARK   89  A    between atoms: _208  and  _209
REMARK   90  A    between atoms: _212  and  _214
REMARK   91  A    between atoms: _214  and  _215
REMARK   92  A    between atoms: _214  and  _217
REMARK   93  A    between atoms: _217  and  _218
REMARK   94  A    between atoms: _223  and  _225
REMARK   95  A    between atoms: _225  and  _226
REMARK   96  A    between atoms: _225  and  _228
REMARK   97  A    between atoms: _228  and  _229
REMARK   98  A    between atoms: _234  and  _235
REMARK   99  A    between atoms: _237  and  _239
REMARK  100  A    between atoms: _239  and  _240
REMARK  101  A    between atoms: _239  and  _242
REMARK  102  A    between atoms: _242  and  _243
REMARK  103  A    between atoms: _246  and  _248
REMARK  104  A    between atoms: _248  and  _249
REMARK  105  A    between atoms: _248  and  _251
REMARK  106  A    between atoms: _251  and  _252
REMARK  107  A    between atoms: _255  and  _257
REMARK  108  A    between atoms: _257  and  _258
REMARK  109  A    between atoms: _257  and  _260
REMARK  110  A    between atoms: _260  and  _261
REMARK  111  A    between atoms: _264  and  _266
REMARK  112  A    between atoms: _266  and  _267
REMARK  113  A    between atoms: _266  and  _269
REMARK  114  A    between atoms: _269  and  _270
REMARK  115  A    between atoms: _275  and  _277
REMARK  116  A    between atoms: _277  and  _278
REMARK  117  A    between atoms: _277  and  _280
REMARK  118  A    between atoms: _280  and  _281
REMARK  119  A    between atoms: _284  and  _286
REMARK  120  A    between atoms: _286  and  _287
REMARK  121  A    between atoms: _286  and  _289
REMARK  122  A    between atoms: _289  and  _290
REMARK  123  A    between atoms: _296  and  _298
REMARK  124  A    between atoms: _298  and  _299
REMARK  125  A    between atoms: _298  and  _301
REMARK  126  A    between atoms: _301  and  _302
REMARK  127  A    between atoms: _304  and  _306
REMARK  128  A    between atoms: _306  and  _307
REMARK  129  A    between atoms: _310  and  _312
REMARK  130  A    between atoms: _312  and  _313
REMARK  131  A    between atoms: _312  and  _315
REMARK  132  A    between atoms: _315  and  _316
REMARK  133  A    between atoms: _321  and  _323
REMARK  134  A    between atoms: _323  and  _324
REMARK  135  A    between atoms: _323  and  _326
REMARK  136  A    between atoms: _326  and  _327
REMARK  137  A    between atoms: _327  and  _328
REMARK  138  A    between atoms: _328  and  _329
REMARK  139  A    between atoms: _338  and  _340
REMARK  140  A    between atoms: _340  and  _341
REMARK  141  A    between atoms: _340  and  _343
REMARK  142  A    between atoms: _343  and  _344
REMARK  143  A    between atoms: _347  and  _349
REMARK  144  A    between atoms: _349  and  _350
REMARK  145  A    between atoms: _349  and  _352
REMARK  146  A    between atoms: _352  and  _353
REMARK  147  A    between atoms: _353  and  _354
REMARK  148  A    between atoms: _354  and  _355
REMARK  149  A    between atoms: _364  and  _366
REMARK  150  A    between atoms: _366  and  _367
REMARK  151  A    between atoms: _366  and  _369
REMARK  152  A    between atoms: _369  and  _370
REMARK  153  A    between atoms: _375  and  _376
REMARK  154  A    between atoms: _378  and  _380
REMARK  155  A    between atoms: _380  and  _381
REMARK  156  A    between atoms: _380  and  _383
REMARK  157  A    between atoms: _386  and  _388
REMARK  158  A    between atoms: _388  and  _389
REMARK  159  A    between atoms: _388  and  _391
REMARK  160  A    between atoms: _391  and  _392
REMARK  161  A    between atoms: _397  and  _398
REMARK  162  A    between atoms: _400  and  _402
REMARK  163  A    between atoms: _402  and  _403
REMARK  164  A    between atoms: _402  and  _405
REMARK  165  A    between atoms: _405  and  _406
REMARK  166  A    between atoms: _408  and  _410
REMARK  167  A    between atoms: _410  and  _411
REMARK  168  A    between atoms: _413  and  _415
REMARK  169  A    between atoms: _415  and  _416
REMARK  170  A    between atoms: _415  and  _418
REMARK  171  A    between atoms: _421  and  _423
REMARK  172  A    between atoms: _423  and  _424
REMARK  173  A    between atoms: _427  and  _429
REMARK  174  A    between atoms: _429  and  _430
REMARK  175  A    between atoms: _429  and  _432
REMARK  176  A    between atoms: _432  and  _433
REMARK  177  A    between atoms: _438  and  _439
REMARK  178  A    between atoms: _441  and  _443
REMARK  179  A    between atoms: _443  and  _444
REMARK  180  A    between atoms: _443  and  _446
REMARK  181  A    between atoms: _446  and  _447
REMARK  182  A    between atoms: _449  and  _451
REMARK  183  A    between atoms: _451  and  _452
REMARK  184  A    between atoms: _455  and  _457
REMARK  185  A    between atoms: _457  and  _458
REMARK  186  A    between atoms: _461  and  _463
REMARK  187  A    between atoms: _463  and  _464
REMARK  188  A    between atoms: _463  and  _466
REMARK  189  A    between atoms: _466  and  _467
REMARK  190  A    between atoms: _467  and  _468
REMARK  191  A    between atoms: _468  and  _469
REMARK  192  A    between atoms: _469  and  _470
REMARK  193  A    between atoms: _474  and  _476
REMARK  194  A    between atoms: _476  and  _477
REMARK  195  A    between atoms: _476  and  _479
REMARK  196  A    between atoms: _479  and  _480
REMARK  197  A    between atoms: _483  and  _485
REMARK  198  A    between atoms: _485  and  _486
REMARK  199  A    between atoms: _485  and  _488
REMARK  200  A    between atoms: _488  and  _489
REMARK  201  A    between atoms: _492  and  _494
REMARK  202  A    between atoms: _494  and  _495
REMARK  203  A    between atoms: _494  and  _497
REMARK  204  A    between atoms: _497  and  _498
REMARK  205  A    between atoms: _501  and  _503
REMARK  206  A    between atoms: _503  and  _504
REMARK  207  A    between atoms: _503  and  _506
REMARK  208  A    between atoms: _506  and  _507
REMARK  209  A    between atoms: _512  and  _514
REMARK  210  A    between atoms: _514  and  _515
REMARK  211  A    between atoms: _514  and  _517
REMARK  212  A    between atoms: _517  and  _518
REMARK  213  A    between atoms: _523  and  _525
REMARK  214  A    between atoms: _525  and  _526
REMARK  215  A    between atoms: _529  and  _531
REMARK  216  A    between atoms: _531  and  _532
REMARK  217  A    between atoms: _531  and  _534
REMARK  218  A    between atoms: _534  and  _535
REMARK  219  A    between atoms: _535  and  _536
REMARK  220  A    between atoms: _539  and  _541
REMARK  221  A    between atoms: _541  and  _542
REMARK  222  A    between atoms: _541  and  _544
REMARK  223  A    between atoms: _544  and  _545
REMARK  224  A    between atoms: _545  and  _546
REMARK  225  A    between atoms: _546  and  _547
REMARK  226  A    between atoms: _547  and  _548
REMARK  227  A    between atoms: _552  and  _554
REMARK  228  A    between atoms: _554  and  _555
REMARK  229  A    between atoms: _554  and  _557
REMARK  230  A    between atoms: _557  and  _558
REMARK  231  A    between atoms: _560  and  _562
REMARK  232  A    between atoms: _562  and  _563
REMARK  233  A    between atoms: _565  and  _567
REMARK  234  A    between atoms: _567  and  _568
REMARK  235  A    between atoms: _567  and  _570
REMARK  236  A    between atoms: _570  and  _571
REMARK  237  A    between atoms: _574  and  _576
REMARK  238  A    between atoms: _576  and  _577
REMARK  239  A    between atoms: _576  and  _579
REMARK  240  A    between atoms: _579  and  _580
REMARK  241  A    between atoms: _580  and  _581
REMARK  242  A    between atoms: _584  and  _586
REMARK  243  A    between atoms: _586  and  _587
REMARK  244  A    between atoms: _586  and  _589
REMARK  245  A    between atoms: _589  and  _590
REMARK  246  A    between atoms: _590  and  _591
REMARK  247  A    between atoms: _591  and  _592
REMARK  248  A    between atoms: _601  and  _603
REMARK  249  A    between atoms: _603  and  _604
REMARK  250  A    between atoms: _603  and  _606
REMARK  251  A    between atoms: _606  and  _607
REMARK  252  A    between atoms: _612  and  _613
REMARK  253  A    between atoms: _615  and  _617
REMARK  254  A    between atoms: _617  and  _618
REMARK  255  A    between atoms: _617  and  _620
REMARK  256  A    between atoms: _620  and  _621
REMARK  257  A    between atoms: _621  and  _622
REMARK  258  A    between atoms: _625  and  _627
REMARK  259  A    between atoms: _627  and  _628
REMARK  260  A    between atoms: _627  and  _630
REMARK  261  A    between atoms: _630  and  _631
REMARK  262  A    between atoms: _634  and  _636
REMARK  263  A    between atoms: _636  and  _637
REMARK  264  A    between atoms: _636  and  _639
REMARK  265  A    between atoms: _639  and  _640
REMARK  266  A    between atoms: _646  and  _648
REMARK  267  A    between atoms: _648  and  _649
REMARK  268  A    between atoms: _648  and  _651
REMARK  269  A    between atoms: _651  and  _652
REMARK  270  A    between atoms: _652  and  _653
REMARK  271  A    between atoms: _658  and  _660
REMARK  272  A    between atoms: _660  and  _661
REMARK  273  A    between atoms: _660  and  _663
REMARK  274  A    between atoms: _666  and  _668
REMARK  275  A    between atoms: _668  and  _669
REMARK  276  A    between atoms: _668  and  _671
REMARK  277  A    between atoms: _671  and  _672
REMARK  278  A    between atoms: _678  and  _680
REMARK  279  A    between atoms: _680  and  _681
REMARK  280  A    between atoms: _680  and  _683
REMARK  281  A    between atoms: _686  and  _688
REMARK  282  A    between atoms: _688  and  _689
REMARK  283  A    between atoms: _688  and  _691
REMARK  284  A    between atoms: _691  and  _692
REMARK  285  A    between atoms: _695  and  _697
REMARK  286  A    between atoms: _697  and  _698
REMARK  287  A    between atoms: _697  and  _700
REMARK  288  A    between atoms: _700  and  _701
REMARK  289  A    between atoms: _706  and  _708
REMARK  290  A    between atoms: _708  and  _709
REMARK  291  A    between atoms: _708  and  _711
REMARK  292  A    between atoms: _711  and  _712
REMARK  293  A    between atoms: _712  and  _713
REMARK  294  A    between atoms: _713  and  _714
REMARK  295  A    between atoms: _714  and  _715
REMARK  296  A    between atoms: _719  and  _721
REMARK  297  A    between atoms: _721  and  _722
REMARK  298  A    between atoms: _724  and  _726
REMARK  299  A    between atoms: _726  and  _727
REMARK  300  A    between atoms: _726  and  _729
REMARK  301  A    between atoms: _729  and  _730
REMARK  302  A    between atoms: _733  and  _735
REMARK  303  A    between atoms: _735  and  _736
REMARK  304  A    between atoms: _735  and  _738
REMARK  305  A    between atoms: _738  and  _739
REMARK  306  A    between atoms: _739  and  _740
REMARK  307  A    between atoms: _745  and  _747
REMARK  308  A    between atoms: _747  and  _748
REMARK  309  A    between atoms: _747  and  _750
REMARK  310  A    between atoms: _750  and  _751
REMARK  311  A    between atoms: _751  and  _752
REMARK  312  A    between atoms: _755  and  _757
REMARK  313  A    between atoms: _757  and  _758
REMARK  314  A    between atoms: _757  and  _760
REMARK  315  A    between atoms: _763  and  _765
REMARK  316  A    between atoms: _765  and  _766
REMARK  317  A    between atoms: _765  and  _768
REMARK  318  A    between atoms: _768  and  _769
REMARK  319  A    between atoms: _769  and  _770
REMARK                            x       y       z     vdW  Elec       q    Type
REMARK                         _______ _______ _______ _____ _____    ______ ____
ROOT
ATOM      1  O   HOH     1       2.634   2.577 145.847  0.00  0.00    +0.000 OA
ENDROOT
TORSDOF 0
REMARK  Name = ../refined-set-2016/3tmk/3tmk_pocket.pdb
REMARK  319 active torsions:
REMARK  status: ('A' for Active; 'I' for Inactive)
REMARK    1  A    between atoms: _1  and  _3
REMARK    2  A    between atoms: _3  and  _4
REMARK    3  A    between atoms: _3  and  _6
REMARK    4  A    between atoms: _6  and  _7
REMARK    5  A    between atoms: _10  and  _12
REMARK    6  A    between atoms: _12  and  _13
REMARK    7  A    between atoms: _12  and  _15
REMARK    8  A    between atoms: _15  and  _16
REMARK    9  A    between atoms: _16  and  _17
REMARK   10  A    between atoms: _20  and  _22
REMARK   11  A    between atoms: _22  and  _23
REMARK   12  A    between atoms: _25  and  _27
REMARK   13  A    between atoms: _27  and  _28
REMARK   14  A    between atoms: _27  and  _30
REMARK   15  A    between atoms: _30  and  _31
REMARK   16  A    between atoms: _34  and  _36
REMARK   17  A    between atoms: _36  and  _37
REMARK   18  A    between atoms: _36  and  _39
REMARK   19  A    between atoms: _39  and  _40
REMARK   20  A    between atoms: _43  and  _45
REMARK   21  A    between atoms: _45  and  _46
REMARK   22  A    between atoms: _45  and  _48
REMARK   23  A    between atoms: _48  and  _49
REMARK   24  A    between atoms: _49  and  _50
REMARK   25  A    between atoms: _50  and  _51
REMARK   26  A    between atoms: _60  and  _62
REMARK   27  A    between atoms: _62  and  _63
REMARK   28  A    between atoms: _62  and  _65
REMARK   29  A    between atoms: _65  and  _66
REMARK   30  A    between atoms: _69  and  _71
REMARK   31  A    between atoms: _71  and  _72
REMARK   32  A    between atoms: _74  and  _76
REMARK   33  A    between atoms: _76  and  _77
REMARK   34  A    between atoms: _76  and  _79
REMARK   35  A    between atoms: _79  and  _80
REMARK   36  A    between atoms: _80  and  _81
REMARK   37  A    between atoms: _81  and  _82
REMARK   38  A    between atoms: _82  and  _83
REMARK   39  A    between atoms: _87  and  _89
REMARK   40  A    between atoms: _89  and  _90
REMARK   41  A    between atoms: _89  and  _92
REMARK   42  A    between atoms: _92  and  _93
REMARK   43  A    between atoms: _96  and  _98
REMARK   44  A    between atoms: _98  and  _99
REMARK   45  A    between atoms: _98  and  _101
REMARK   46  A    between atoms: _101  and  _102
REMARK   47  A    between atoms: _105  and  _107
REMARK   48  A    between atoms: _107  and  _108
REMARK   49  A    between atoms: _107  and  _110
REMARK   50  A    between atoms: _110  and  _111
REMARK   51  A    between atoms: _111  and  _112
REMARK   52  A    between atoms: _117  and  _119
REMARK   53  A    between atoms: _119  and  _120
REMARK   54  A    between atoms: _119  and  _122
REMARK   55  A    between atoms: _124  and  _126
REMARK   56  A    between atoms: _126  and  _127
REMARK   57  A    between atoms: _126  and  _129
REMARK   58  A    between atoms: _129  and  _130
REMARK   59  A    between atoms: _135  and  _137
REMARK   60  A    between atoms: _137  and  _138
REMARK   61  A    between atoms: _137  and  _140
REMARK   62  A    between atoms: _140  and  _141
REMARK   63  A    between atoms: _144  and  _146
REMARK   64  A    between atoms: _146  and  _147
REMARK   65  A    between atoms: _146  and  _149
REMARK   66  A    between atoms: _149  and  _150
REMARK   67  A    between atoms: _150  and  _151
REMARK   68  A    between atoms: _151  and  _152
REMARK   69  A    between atoms: _152  and  _153
REMARK   70  A    between atoms: _157  and  _159
REMARK   71  A    between atoms: _159  and  _160
REMARK   72  A    between atoms: _159  and  _162
REMARK   73  A    between atoms: _162  and  _163
REMARK   74  A    between atoms: _170  and  _171
REMARK   75  A    between atoms: _176  and  _178
REMARK   76  A    between atoms: _178  and  _179
REMARK   77  A    between atoms: _178  and  _181
REMARK   78  A    between atoms: _181  and  _182
REMARK   79  A    between atoms: _182  and  _183
REMARK   80  A    between atoms: _186  and  _188
REMARK   81  A    between atoms: _188  and  _189
REMARK   82  A    between atoms: _188  and  _191
REMARK   83  A    between atoms: _191  and  _192
REMARK   84  A    between atoms: _192  and  _193
REMARK   85  A    between atoms: _193  and  _194
REMARK   86  A    between atoms: _203  and  _205
REMARK   87  A    between atoms: _205  and  _206
REMARK   88  A    between atoms: _205  and  _208
REMARK   89  A    between atoms: _208  and  _209
REMARK   90  A    between atoms: _212  and  _214
REMARK   91  A    between atoms: _214  and  _215
REMARK   92  A    between atoms: _214  and  _217
REMARK   93  A    between atoms: _217  and  _218
REMARK   94  A    between atoms: _223  and  _225
REMARK   95  A    between atoms: _225  and  _226
REMARK   96  A    between atoms: _225  and  _228
REMARK   97  A    between atoms: _228  and  _229
REMARK   98  A    between atoms: _234  and  _235
REMARK   99  A    between atoms: _237  and  _239
REMARK  100  A    between atoms: _239  and  _240
REMARK  101  A    between atoms: _239  and  _242
REMARK  102  A    between atoms: _242  and  _243
REMARK  103  A    between atoms: _246  and  _248
REMARK  104  A    between atoms: _248  and  _249
REMARK  105  A    between atoms: _248  and  _251
REMARK  106  A    between atoms: _251  and  _252
REMARK  107  A    between atoms: _255  and  _257
REMARK  108  A    between atoms: _257  and  _258
REMARK  109  A    between atoms: _257  and  _260
REMARK  110  A    between atoms: _260  and  _261
REMARK  111  A    between atoms: _264  and  _266
REMARK  112  A    between atoms: _266  and  _267
REMARK  113  A    between atoms: _266  and  _269
REMARK  114  A    between atoms: _269  and  _270
REMARK  115  A    between atoms: _275  and  _277
REMARK  116  A    between atoms: _277  and  _278
REMARK  117  A    between atoms: _277  and  _280
REMARK  118  A    between atoms: _280  and  _281
REMARK  119  A    between atoms: _284  and  _286
REMARK  120  A    between atoms: _286  and  _287
REMARK  121  A    between atoms: _286  and  _289
REMARK  122  A    between atoms: _289  and  _290
REMARK  123  A    between atoms: _296  and  _298
REMARK  124  A    between atoms: _298  and  _299
REMARK  125  A    between atoms: _298  and  _301
REMARK  126  A    between atoms: _301  and  _302
REMARK  127  A    between atoms: _304  and  _306
REMARK  128  A    between atoms: _306  and  _307
REMARK  129  A    between atoms: _310  and  _312
REMARK  130  A    between atoms: _312  and  _313
REMARK  131  A    between atoms: _312  and  _315
REMARK  132  A    between atoms: _315  and  _316
REMARK  133  A    between atoms: _321  and  _323
REMARK  134  A    between atoms: _323  and  _324
REMARK  135  A    between atoms: _323  and  _326
REMARK  136  A    between atoms: _326  and  _327
REMARK  137  A    between atoms: _327  and  _328
REMARK  138  A    between atoms: _328  and  _329
REMARK  139  A    between atoms: _338  and  _340
REMARK  140  A    between atoms: _340  and  _341
REMARK  141  A    between atoms: _340  and  _343
REMARK  142  A    between atoms: _343  and  _344
REMARK  143  A    between atoms: _347  and  _349
REMARK  144  A    between atoms: _349  and  _350
REMARK  145  A    between atoms: _349  and  _352
REMARK  146  A    between atoms: _352  and  _353
REMARK  147  A    between atoms: _353  and  _354
REMARK  148  A    between atoms: _354  and  _355
REMARK  149  A    between atoms: _364  and  _366
REMARK  150  A    between atoms: _366  and  _367
REMARK  151  A    between atoms: _366  and  _369
REMARK  152  A    between atoms: _369  and  _370
REMARK  153  A    between atoms: _375  and  _376
REMARK  154  A    between atoms: _378  and  _380
REMARK  155  A    between atoms: _380  and  _381
REMARK  156  A    between atoms: _380  and  _383
REMARK  157  A    between atoms: _386  and  _388
REMARK  158  A    between atoms: _388  and  _389
REMARK  159  A    between atoms: _388  and  _391
REMARK  160  A    between atoms: _391  and  _392
REMARK  161  A    between atoms: _397  and  _398
REMARK  162  A    between atoms: _400  and  _402
REMARK  163  A    between atoms: _402  and  _403
REMARK  164  A    between atoms: _402  and  _405
REMARK  165  A    between atoms: _405  and  _406
REMARK  166  A    between atoms: _408  and  _410
REMARK  167  A    between atoms: _410  and  _411
REMARK  168  A    between atoms: _413  and  _415
REMARK  169  A    between atoms: _415  and  _416
REMARK  170  A    between atoms: _415  and  _418
REMARK  171  A    between atoms: _421  and  _423
REMARK  172  A    between atoms: _423  and  _424
REMARK  173  A    between atoms: _427  and  _429
REMARK  174  A    between atoms: _429  and  _430
REMARK  175  A    between atoms: _429  and  _432
REMARK  176  A    between atoms: _432  and  _433
REMARK  177  A    between atoms: _438  and  _439
REMARK  178  A    between atoms: _441  and  _443
REMARK  179  A    between atoms: _443  and  _444
REMARK  180  A    between atoms: _443  and  _446
REMARK  181  A    between atoms: _446  and  _447
REMARK  182  A    between atoms: _449  and  _451
REMARK  183  A    between atoms: _451  and  _452
REMARK  184  A    between atoms: _455  and  _457
REMARK  185  A    between atoms: _457  and  _458
REMARK  186  A    between atoms: _461  and  _463
REMARK  187  A    between atoms: _463  and  _464
REMARK  188  A    between atoms: _463  and  _466
REMARK  189  A    between atoms: _466  and  _467
REMARK  190  A    between atoms: _467  and  _468
REMARK  191  A    between atoms: _468  and  _469
REMARK  192  A    between atoms: _469  and  _470
REMARK  193  A    between atoms: _474  and  _476
REMARK  194  A    between atoms: _476  and  _477
REMARK  195  A    between atoms: _476  and  _479
REMARK  196  A    between atoms: _479  and  _480
REMARK  197  A    between atoms: _483  and  _485
REMARK  198  A    between atoms: _485  and  _486
REMARK  199  A    between atoms: _485  and  _488
REMARK  200  A    between atoms: _488  and  _489
REMARK  201  A    between atoms: _492  and  _494
REMARK  202  A    between atoms: _494  and  _495
REMARK  203  A    between atoms: _494  and  _497
REMARK  204  A    between atoms: _497  and  _498
REMARK  205  A    between atoms: _501  and  _503
REMARK  206  A    between atoms: _503  and  _504
REMARK  207  A    between atoms: _503  and  _506
REMARK  208  A    between atoms: _506  and  _507
REMARK  209  A    between atoms: _512  and  _514
REMARK  210  A    between atoms: _514  and  _515
REMARK  211  A    between atoms: _514  and  _517
REMARK  212  A    between atoms: _517  and  _518
REMARK  213  A    between atoms: _523  and  _525
REMARK  214  A    between atoms: _525  and  _526
REMARK  215  A    between atoms: _529  and  _531
REMARK  216  A    between atoms: _531  and  _532
REMARK  217  A    between atoms: _531  and  _534
REMARK  218  A    between atoms: _534  and  _535
REMARK  219  A    between atoms: _535  and  _536
REMARK  220  A    between atoms: _539  and  _541
REMARK  221  A    between atoms: _541  and  _542
REMARK  222  A    between atoms: _541  and  _544
REMARK  223  A    between atoms: _544  and  _545
REMARK  224  A    between atoms: _545  and  _546
REMARK  225  A    between atoms: _546  and  _547
REMARK  226  A    between atoms: _547  and  _548
REMARK  227  A    between atoms: _552  and  _554
REMARK  228  A    between atoms: _554  and  _555
REMARK  229  A    between atoms: _554  and  _557
REMARK  230  A    between atoms: _557  and  _558
REMARK  231  A    between atoms: _560  and  _562
REMARK  232  A    between atoms: _562  and  _563
REMARK  233  A    between atoms: _565  and  _567
REMARK  234  A    between atoms: _567  and  _568
REMARK  235  A    between atoms: _567  and  _570
REMARK  236  A    between atoms: _570  and  _571
REMARK  237  A    between atoms: _574  and  _576
REMARK  238  A    between atoms: _576  and  _577
REMARK  239  A    between atoms: _576  and  _579
REMARK  240  A    between atoms: _579  and  _580
REMARK  241  A    between atoms: _580  and  _581
REMARK  242  A    between atoms: _584  and  _586
REMARK  243  A    between atoms: _586  and  _587
REMARK  244  A    between atoms: _586  and  _589
REMARK  245  A    between atoms: _589  and  _590
REMARK  246  A    between atoms: _590  and  _591
REMARK  247  A    between atoms: _591  and  _592
REMARK  248  A    between atoms: _601  and  _603
REMARK  249  A    between atoms: _603  and  _604
REMARK  250  A    between atoms: _603  and  _606
REMARK  251  A    between atoms: _606  and  _607
REMARK  252  A    between atoms: _612  and  _613
REMARK  253  A    between atoms: _615  and  _617
REMARK  254  A    between atoms: _617  and  _618
REMARK  255  A    between atoms: _617  and  _620
REMARK  256  A    between atoms: _620  and  _621
REMARK  257  A    between atoms: _621  and  _622
REMARK  258  A    between atoms: _625  and  _627
REMARK  259  A    between atoms: _627  and  _628
REMARK  260  A    between atoms: _627  and  _630
REMARK  261  A    between atoms: _630  and  _631
REMARK  262  A    between atoms: _634  and  _636
REMARK  263  A    between atoms: _636  and  _637
REMARK  264  A    between atoms: _636  and  _639
REMARK  265  A    between atoms: _639  and  _640
REMARK  266  A    between atoms: _646  and  _648
REMARK  267  A    between atoms: _648  and  _649
REMARK  268  A    between atoms: _648  and  _651
REMARK  269  A    between atoms: _651  and  _652
REMARK  270  A    between atoms: _652  and  _653
REMARK  271  A    between atoms: _658  and  _660
REMARK  272  A    between atoms: _660  and  _661
REMARK  273  A    between atoms: _660  and  _663
REMARK  274  A    between atoms: _666  and  _668
REMARK  275  A    between atoms: _668  and  _669
REMARK  276  A    between atoms: _668  and  _671
REMARK  277  A    between atoms: _671  and  _672
REMARK  278  A    between atoms: _678  and  _680
REMARK  279  A    between atoms: _680  and  _681
REMARK  280  A    between atoms: _680  and  _683
REMARK  281  A    between atoms: _686  and  _688
REMARK  282  A    between atoms: _688  and  _689
REMARK  283  A    between atoms: _688  and  _691
REMARK  284  A    between atoms: _691  and  _692
REMARK  285  A    between atoms: _695  and  _697
REMARK  286  A    between atoms: _697  and  _698
REMARK  287  A    between atoms: _697  and  _700
REMARK  288  A    between atoms: _700  and  _701
REMARK  289  A    between atoms: _706  and  _708
REMARK  290  A    between atoms: _708  and  _709
REMARK  291  A    between atoms: _708  and  _711
REMARK  292  A    between atoms: _711  and  _712
REMARK  293  A    between atoms: _712  and  _713
REMARK  294  A    between atoms: _713  and  _714
REMARK  295  A    between atoms: _714  and  _715
REMARK  296  A    between atoms: _719  and  _721
REMARK  297  A    between atoms: _721  and  _722
REMARK  298  A    between atoms: _724  and  _726
REMARK  299  A    between atoms: _726  and  _727
REMARK  300  A    between atoms: _726  and  _729
REMARK  301  A    between atoms: _729  and  _730
REMARK  302  A    between atoms: _733  and  _735
REMARK  303  A    between atoms: _735  and  _736
REMARK  304  A    between atoms: _735  and  _738
REMARK  305  A    between atoms: _738  and  _739
REMARK  306  A    between atoms: _739  and  _740
REMARK  307  A    between atoms: _745  and  _747
REMARK  308  A    between atoms: _747  and  _748
REMARK  309  A    between atoms: _747  and  _750
REMARK  310  A    between atoms: _750  and  _751
REMARK  311  A    between atoms: _751  and  _752
REMARK  312  A    between atoms: _755  and  _757
REMARK  313  A    between atoms: _757  and  _758
REMARK  314  A    between atoms: _757  and  _760
REMARK  315  A    between atoms: _763  and  _765
REMARK  316  A    between atoms: _765  and  _766
REMARK  317  A    between atoms: _765  and  _768
REMARK  318  A    between atoms: _768  and  _769
REMARK  319  A    between atoms: _769  and  _770
REMARK                            x       y       z     vdW  Elec       q    Type
REMARK                         _______ _______ _______ _____ _____    ______ ____
ROOT
ATOM      1  O   HOH     1       1.921  -1.903 166.063  0.00  0.00    +0.000 OA
ENDROOT
TORSDOF 0
REMARK  Name = ../refined-set-2016/3tmk/3tmk_pocket.pdb
REMARK  319 active torsions:
REMARK  status: ('A' for Active; 'I' for Inactive)
REMARK    1  A    between atoms: _1  and  _3
REMARK    2  A    between atoms: _3  and  _4
REMARK    3  A    between atoms: _3  and  _6
REMARK    4  A    between atoms: _6  and  _7
REMARK    5  A    between atoms: _10  and  _12
REMARK    6  A    between atoms: _12  and  _13
REMARK    7  A    between atoms: _12  and  _15
REMARK    8  A    between atoms: _15  and  _16
REMARK    9  A    between atoms: _16  and  _17
REMARK   10  A    between atoms: _20  and  _22
REMARK   11  A    between atoms: _22  and  _23
REMARK   12  A    between atoms: _25  and  _27
REMARK   13  A    between atoms: _27  and  _28
REMARK   14  A    between atoms: _27  and  _30
REMARK   15  A    between atoms: _30  and  _31
REMARK   16  A    between atoms: _34  and  _36
REMARK   17  A    between atoms: _36  and  _37
REMARK   18  A    between atoms: _36  and  _39
REMARK   19  A    between atoms: _39  and  _40
REMARK   20  A    between atoms: _43  and  _45
REMARK   21  A    between atoms: _45  and  _46
REMARK   22  A    between atoms: _45  and  _48
REMARK   23  A    between atoms: _48  and  _49
REMARK   24  A    between atoms: _49  and  _50
REMARK   25  A    between atoms: _50  and  _51
REMARK   26  A    between atoms: _60  and  _62
REMARK   27  A    between atoms: _62  and  _63
REMARK   28  A    between atoms: _62  and  _65
REMARK   29  A    between atoms: _65  and  _66
REMARK   30  A    between atoms: _69  and  _71
REMARK   31  A    between atoms: _71  and  _72
REMARK   32  A    between atoms: _74  and  _76
REMARK   33  A    between atoms: _76  and  _77
REMARK   34  A    between atoms: _76  and  _79
REMARK   35  A    between atoms: _79  and  _80
REMARK   36  A    between atoms: _80  and  _81
REMARK   37  A    between atoms: _81  and  _82
REMARK   38  A    between atoms: _82  and  _83
REMARK   39  A    between atoms: _87  and  _89
REMARK   40  A    between atoms: _89  and  _90
REMARK   41  A    between atoms: _89  and  _92
REMARK   42  A    between atoms: _92  and  _93
REMARK   43  A    between atoms: _96  and  _98
REMARK   44  A    between atoms: _98  and  _99
REMARK   45  A    between atoms: _98  and  _101
REMARK   46  A    between atoms: _101  and  _102
REMARK   47  A    between atoms: _105  and  _107
REMARK   48  A    between atoms: _107  and  _108
REMARK   49  A    between atoms: _107  and  _110
REMARK   50  A    between atoms: _110  and  _111
REMARK   51  A    between atoms: _111  and  _112
REMARK   52  A    between atoms: _117  and  _119
REMARK   53  A    between atoms: _119  and  _120
REMARK   54  A    between atoms: _119  and  _122
REMARK   55  A    between atoms: _124  and  _126
REMARK   56  A    between atoms: _126  and  _127
REMARK   57  A    between atoms: _126  and  _129
REMARK   58  A    between atoms: _129  and  _130
REMARK   59  A    between atoms: _135  and  _137
REMARK   60  A    between atoms: _137  and  _138
REMARK   61  A    between atoms: _137  and  _140
REMARK   62  A    between atoms: _140  and  _141
REMARK   63  A    between atoms: _144  and  _146
REMARK   64  A    between atoms: _146  and  _147
REMARK   65  A    between atoms: _146  and  _149
REMARK   66  A    between atoms: _149  and  _150
REMARK   67  A    between atoms: _150  and  _151
REMARK   68  A    between atoms: _151  and  _152
REMARK   69  A    between atoms: _152  and  _153
REMARK   70  A    between atoms: _157  and  _159
REMARK   71  A    between atoms: _159  and  _160
REMARK   72  A    between atoms: _159  and  _162
REMARK   73  A    between atoms: _162  and  _163
REMARK   74  A    between atoms: _170  and  _171
REMARK   75  A    between atoms: _176  and  _178
REMARK   76  A    between atoms: _178  and  _179
REMARK   77  A    between atoms: _178  and  _181
REMARK   78  A    between atoms: _181  and  _182
REMARK   79  A    between atoms: _182  and  _183
REMARK   80  A    between atoms: _186  and  _188
REMARK   81  A    between atoms: _188  and  _189
REMARK   82  A    between atoms: _188  and  _191
REMARK   83  A    between atoms: _191  and  _192
REMARK   84  A    between atoms: _192  and  _193
REMARK   85  A    between atoms: _193  and  _194
REMARK   86  A    between atoms: _203  and  _205
REMARK   87  A    between atoms: _205  and  _206
REMARK   88  A    between atoms: _205  and  _208
REMARK   89  A    between atoms: _208  and  _209
REMARK   90  A    between atoms: _212  and  _214
REMARK   91  A    between atoms: _214  and  _215
REMARK   92  A    between atoms: _214  and  _217
REMARK   93  A    between atoms: _217  and  _218
REMARK   94  A    between atoms: _223  and  _225
REMARK   95  A    between atoms: _225  and  _226
REMARK   96  A    between atoms: _225  and  _228
REMARK   97  A    between atoms: _228  and  _229
REMARK   98  A    between atoms: _234  and  _235
REMARK   99  A    between atoms: _237  and  _239
REMARK  100  A    between atoms: _239  and  _240
REMARK  101  A    between atoms: _239  and  _242
REMARK  102  A    between atoms: _242  and  _243
REMARK  103  A    between atoms: _246  and  _248
REMARK  104  A    between atoms: _248  and  _249
REMARK  105  A    between atoms: _248  and  _251
REMARK  106  A    between atoms: _251  and  _252
REMARK  107  A    between atoms: _255  and  _257
REMARK  108  A    between atoms: _257  and  _258
REMARK  109  A    between atoms: _257  and  _260
REMARK  110  A    between atoms: _260  and  _261
REMARK  111  A    between atoms: _264  and  _266
REMARK  112  A    between atoms: _266  and  _267
REMARK  113  A    between atoms: _266  and  _269
REMARK  114  A    between atoms: _269  and  _270
REMARK  115  A    between atoms: _275  and  _277
REMARK  116  A    between atoms: _277  and  _278
REMARK  117  A    between atoms: _277  and  _280
REMARK  118  A    between atoms: _280  and  _281
REMARK  119  A    between atoms: _284  and  _286
REMARK  120  A    between atoms: _286  and  _287
REMARK  121  A    between atoms: _286  and  _289
REMARK  122  A    between atoms: _289  and  _290
REMARK  123  A    between atoms: _296  and  _298
REMARK  124  A    between atoms: _298  and  _299
REMARK  125  A    between atoms: _298  and  _301
REMARK  126  A    between atoms: _301  and  _302
REMARK  127  A    between atoms: _304  and  _306
REMARK  128  A    between atoms: _306  and  _307
REMARK  129  A    between atoms: _310  and  _312
REMARK  130  A    between atoms: _312  and  _313
REMARK  131  A    between atoms: _312  and  _315
REMARK  132  A    between atoms: _315  and  _316
REMARK  133  A    between atoms: _321  and  _323
REMARK  134  A    between atoms: _323  and  _324
REMARK  135  A    between atoms: _323  and  _326
REMARK  136  A    between atoms: _326  and  _327
REMARK  137  A    between atoms: _327  and  _328
REMARK  138  A    between atoms: _328  and  _329
REMARK  139  A    between atoms: _338  and  _340
REMARK  140  A    between atoms: _340  and  _341
REMARK  141  A    between atoms: _340  and  _343
REMARK  142  A    between atoms: _343  and  _344
REMARK  143  A    between atoms: _347  and  _349
REMARK  144  A    between atoms: _349  and  _350
REMARK  145  A    between atoms: _349  and  _352
REMARK  146  A    between atoms: _352  and  _353
REMARK  147  A    between atoms: _353  and  _354
REMARK  148  A    between atoms: _354  and  _355
REMARK  149  A    between atoms: _364  and  _366
REMARK  150  A    between atoms: _366  and  _367
REMARK  151  A    between atoms: _366  and  _369
REMARK  152  A    between atoms: _369  and  _370
REMARK  153  A    between atoms: _375  and  _376
REMARK  154  A    between atoms: _378  and  _380
REMARK  155  A    between atoms: _380  and  _381
REMARK  156  A    between atoms: _380  and  _383
REMARK  157  A    between atoms: _386  and  _388
REMARK  158  A    between atoms: _388  and  _389
REMARK  159  A    between atoms: _388  and  _391
REMARK  160  A    between atoms: _391  and  _392
REMARK  161  A    between atoms: _397  and  _398
REMARK  162  A    between atoms: _400  and  _402
REMARK  163  A    between atoms: _402  and  _403
REMARK  164  A    between atoms: _402  and  _405
REMARK  165  A    between atoms: _405  and  _406
REMARK  166  A    between atoms: _408  and  _410
REMARK  167  A    between atoms: _410  and  _411
REMARK  168  A    between atoms: _413  and  _415
REMARK  169  A    between atoms: _415  and  _416
REMARK  170  A    between atoms: _415  and  _418
REMARK  171  A    between atoms: _421  and  _423
REMARK  172  A    between atoms: _423  and  _424
REMARK  173  A    between atoms: _427  and  _429
REMARK  174  A    between atoms: _429  and  _430
REMARK  175  A    between atoms: _429  and  _432
REMARK  176  A    between atoms: _432  and  _433
REMARK  177  A    between atoms: _438  and  _439
REMARK  178  A    between atoms: _441  and  _443
REMARK  179  A    between atoms: _443  and  _444
REMARK  180  A    between atoms: _443  and  _446
REMARK  181  A    between atoms: _446  and  _447
REMARK  182  A    between atoms: _449  and  _451
REMARK  183  A    between atoms: _451  and  _452
REMARK  184  A    between atoms: _455  and  _457
REMARK  185  A    between atoms: _457  and  _458
REMARK  186  A    between atoms: _461  and  _463
REMARK  187  A    between atoms: _463  and  _464
REMARK  188  A    between atoms: _463  and  _466
REMARK  189  A    between atoms: _466  and  _467
REMARK  190  A    between atoms: _467  and  _468
REMARK  191  A    between atoms: _468  and  _469
REMARK  192  A    between atoms: _469  and  _470
REMARK  193  A    between atoms: _474  and  _476
REMARK  194  A    between atoms: _476  and  _477
REMARK  195  A    between atoms: _476  and  _479
REMARK  196  A    between atoms: _479  and  _480
REMARK  197  A    between atoms: _483  and  _485
REMARK  198  A    between atoms: _485  and  _486
REMARK  199  A    between atoms: _485  and  _488
REMARK  200  A    between atoms: _488  and  _489
REMARK  201  A    between atoms: _492  and  _494
REMARK  202  A    between atoms: _494  and  _495
REMARK  203  A    between atoms: _494  and  _497
REMARK  204  A    between atoms: _497  and  _498
REMARK  205  A    between atoms: _501  and  _503
REMARK  206  A    between atoms: _503  and  _504
REMARK  207  A    between atoms: _503  and  _506
REMARK  208  A    between atoms: _506  and  _507
REMARK  209  A    between atoms: _512  and  _514
REMARK  210  A    between atoms: _514  and  _515
REMARK  211  A    between atoms: _514  and  _517
REMARK  212  A    between atoms: _517  and  _518
REMARK  213  A    between atoms: _523  and  _525
REMARK  214  A    between atoms: _525  and  _526
REMARK  215  A    between atoms: _529  and  _531
REMARK  216  A    between atoms: _531  and  _532
REMARK  217  A    between atoms: _531  and  _534
REMARK  218  A    between atoms: _534  and  _535
REMARK  219  A    between atoms: _535  and  _536
REMARK  220  A    between atoms: _539  and  _541
REMARK  221  A    between atoms: _541  and  _542
REMARK  222  A    between atoms: _541  and  _544
REMARK  223  A    between atoms: _544  and  _545
REMARK  224  A    between atoms: _545  and  _546
REMARK  225  A    between atoms: _546  and  _547
REMARK  226  A    between atoms: _547  and  _548
REMARK  227  A    between atoms: _552  and  _554
REMARK  228  A    between atoms: _554  and  _555
REMARK  229  A    between atoms: _554  and  _557
REMARK  230  A    between atoms: _557  and  _558
REMARK  231  A    between atoms: _560  and  _562
REMARK  232  A    between atoms: _562  and  _563
REMARK  233  A    between atoms: _565  and  _567
REMARK  234  A    between atoms: _567  and  _568
REMARK  235  A    between atoms: _567  and  _570
REMARK  236  A    between atoms: _570  and  _571
REMARK  237  A    between atoms: _574  and  _576
REMARK  238  A    between atoms: _576  and  _577
REMARK  239  A    between atoms: _576  and  _579
REMARK  240  A    between atoms: _579  and  _580
REMARK  241  A    between atoms: _580  and  _581
REMARK  242  A    between atoms: _584  and  _586
REMARK  243  A    between atoms: _586  and  _587
REMARK  244  A    between atoms: _586  and  _589
REMARK  245  A    between atoms: _589  and  _590
REMARK  246  A    between atoms: _590  and  _591
REMARK  247  A    between atoms: _591  and  _592
REMARK  248  A    between atoms: _601  and  _603
REMARK  249  A    between atoms: _603  and  _604
REMARK  250  A    between atoms: _603  and  _606
REMARK  251  A    between atoms: _606  and  _607
REMARK  252  A    between atoms: _612  and  _613
REMARK  253  A    between atoms: _615  and  _617
REMARK  254  A    between atoms: _617  and  _618
REMARK  255  A    between atoms: _617  and  _620
REMARK  256  A    between atoms: _620  and  _621
REMARK  257  A    between atoms: _621  and  _622
REMARK  258  A    between atoms: _625  and  _627
REMARK  259  A    between atoms: _627  and  _628
REMARK  260  A    between atoms: _627  and  _630
REMARK  261  A    between atoms: _630  and  _631
REMARK  262  A    between atoms: _634  and  _636
REMARK  263  A    between atoms: _636  and  _637
REMARK  264  A    between atoms: _636  and  _639
REMARK  265  A    between atoms: _639  and  _640
REMARK  266  A    between atoms: _646  and  _648
REMARK  267  A    between atoms: _648  and  _649
REMARK  268  A    between atoms: _648  and  _651
REMARK  269  A    between atoms: _651  and  _652
REMARK  270  A    between atoms: _652  and  _653
REMARK  271  A    between atoms: _658  and  _660
REMARK  272  A    between atoms: _660  and  _661
REMARK  273  A    between atoms: _660  and  _663
REMARK  274  A    between atoms: _666  and  _668
REMARK  275  A    between atoms: _668  and  _669
REMARK  276  A    between atoms: _668  and  _671
REMARK  277  A    between atoms: _671  and  _672
REMARK  278  A    between atoms: _678  and  _680
REMARK  279  A    between atoms: _680  and  _681
REMARK  280  A    between atoms: _680  and  _683
REMARK  281  A    between atoms: _686  and  _688
REMARK  282  A    between atoms: _688  and  _689
REMARK  283  A    between atoms: _688  and  _691
REMARK  284  A    between atoms: _691  and  _692
REMARK  285  A    between atoms: _695  and  _697
REMARK  286  A    between atoms: _697  and  _698
REMARK  287  A    between atoms: _697  and  _700
REMARK  288  A    between atoms: _700  and  _701
REMARK  289  A    between atoms: _706  and  _708
REMARK  290  A    between atoms: _708  and  _709
REMARK  291  A    between atoms: _708  and  _711
REMARK  292  A    between atoms: _711  and  _712
REMARK  293  A    between atoms: _712  and  _713
REMARK  294  A    between atoms: _713  and  _714
REMARK  295  A    between atoms: _714  and  _715
REMARK  296  A    between atoms: _719  and  _721
REMARK  297  A    between atoms: _721  and  _722
REMARK  298  A    between atoms: _724  and  _726
REMARK  299  A    between atoms: _726  and  _727
REMARK  300  A    between atoms: _726  and  _729
REMARK  301  A    between atoms: _729  and  _730
REMARK  302  A    between atoms: _733  and  _735
REMARK  303  A    between atoms: _735  and  _736
REMARK  304  A    between atoms: _735  and  _738
REMARK  305  A    between atoms: _738  and  _739
REMARK  306  A    between atoms: _739  and  _740
REMARK  307  A    between atoms: _745  and  _747
REMARK  308  A    between atoms: _747  and  _748
REMARK  309  A    between atoms: _747  and  _750
REMARK  310  A    between atoms: _750  and  _751
REMARK  311  A    between atoms: _751  and  _752
REMARK  312  A    between atoms: _755  and  _757
REMARK  313  A    between atoms: _757  and  _758
REMARK  314  A    between atoms: _757  and  _760
REMARK  315  A    between atoms: _763  and  _765
REMARK  316  A    between atoms: _765  and  _766
REMARK  317  A    between atoms: _765  and  _768
REMARK  318  A    between atoms: _768  and  _769
REMARK  319  A    between atoms: _769  and  _770
REMARK                            x       y       z     vdW  Elec       q    Type
REMARK                         _______ _______ _______ _____ _____    ______ ____
ROOT
ATOM      1  O   HOH     1       3.527 -10.150 148.753  0.00  0.00    +0.000 OA
ENDROOT
TORSDOF 0
REMARK  Name = ../refined-set-2016/3tmk/3tmk_pocket.pdb
REMARK  319 active torsions:
REMARK  status: ('A' for Active; 'I' for Inactive)
REMARK    1  A    between atoms: _1  and  _3
REMARK    2  A    between atoms: _3  and  _4
REMARK    3  A    between atoms: _3  and  _6
REMARK    4  A    between atoms: _6  and  _7
REMARK    5  A    between atoms: _10  and  _12
REMARK    6  A    between atoms: _12  and  _13
REMARK    7  A    between atoms: _12  and  _15
REMARK    8  A    between atoms: _15  and  _16
REMARK    9  A    between atoms: _16  and  _17
REMARK   10  A    between atoms: _20  and  _22
REMARK   11  A    between atoms: _22  and  _23
REMARK   12  A    between atoms: _25  and  _27
REMARK   13  A    between atoms: _27  and  _28
REMARK   14  A    between atoms: _27  and  _30
REMARK   15  A    between atoms: _30  and  _31
REMARK   16  A    between atoms: _34  and  _36
REMARK   17  A    between atoms: _36  and  _37
REMARK   18  A    between atoms: _36  and  _39
REMARK   19  A    between atoms: _39  and  _40
REMARK   20  A    between atoms: _43  and  _45
REMARK   21  A    between atoms: _45  and  _46
REMARK   22  A    between atoms: _45  and  _48
REMARK   23  A    between atoms: _48  and  _49
REMARK   24  A    between atoms: _49  and  _50
REMARK   25  A    between atoms: _50  and  _51
REMARK   26  A    between atoms: _60  and  _62
REMARK   27  A    between atoms: _62  and  _63
REMARK   28  A    between atoms: _62  and  _65
REMARK   29  A    between atoms: _65  and  _66
REMARK   30  A    between atoms: _69  and  _71
REMARK   31  A    between atoms: _71  and  _72
REMARK   32  A    between atoms: _74  and  _76
REMARK   33  A    between atoms: _76  and  _77
REMARK   34  A    between atoms: _76  and  _79
REMARK   35  A    between atoms: _79  and  _80
REMARK   36  A    between atoms: _80  and  _81
REMARK   37  A    between atoms: _81  and  _82
REMARK   38  A    between atoms: _82  and  _83
REMARK   39  A    between atoms: _87  and  _89
REMARK   40  A    between atoms: _89  and  _90
REMARK   41  A    between atoms: _89  and  _92
REMARK   42  A    between atoms: _92  and  _93
REMARK   43  A    between atoms: _96  and  _98
REMARK   44  A    between atoms: _98  and  _99
REMARK   45  A    between atoms: _98  and  _101
REMARK   46  A    between atoms: _101  and  _102
REMARK   47  A    between atoms: _105  and  _107
REMARK   48  A    between atoms: _107  and  _108
REMARK   49  A    between atoms: _107  and  _110
REMARK   50  A    between atoms: _110  and  _111
REMARK   51  A    between atoms: _111  and  _112
REMARK   52  A    between atoms: _117  and  _119
REMARK   53  A    between atoms: _119  and  _120
REMARK   54  A    between atoms: _119  and  _122
REMARK   55  A    between atoms: _124  and  _126
REMARK   56  A    between atoms: _126  and  _127
REMARK   57  A    between atoms: _126  and  _129
REMARK   58  A    between atoms: _129  and  _130
REMARK   59  A    between atoms: _135  and  _137
REMARK   60  A    between atoms: _137  and  _138
REMARK   61  A    between atoms: _137  and  _140
REMARK   62  A    between atoms: _140  and  _141
REMARK   63  A    between atoms: _144  and  _146
REMARK   64  A    between atoms: _146  and  _147
REMARK   65  A    between atoms: _146  and  _149
REMARK   66  A    between atoms: _149  and  _150
REMARK   67  A    between atoms: _150  and  _151
REMARK   68  A    between atoms: _151  and  _152
REMARK   69  A    between atoms: _152  and  _153
REMARK   70  A    between atoms: _157  and  _159
REMARK   71  A    between atoms: _159  and  _160
REMARK   72  A    between atoms: _159  and  _162
REMARK   73  A    between atoms: _162  and  _163
REMARK   74  A    between atoms: _170  and  _171
REMARK   75  A    between atoms: _176  and  _178
REMARK   76  A    between atoms: _178  and  _179
REMARK   77  A    between atoms: _178  and  _181
REMARK   78  A    between atoms: _181  and  _182
REMARK   79  A    between atoms: _182  and  _183
REMARK   80  A    between atoms: _186  and  _188
REMARK   81  A    between atoms: _188  and  _189
REMARK   82  A    between atoms: _188  and  _191
REMARK   83  A    between atoms: _191  and  _192
REMARK   84  A    between atoms: _192  and  _193
REMARK   85  A    between atoms: _193  and  _194
REMARK   86  A    between atoms: _203  and  _205
REMARK   87  A    between atoms: _205  and  _206
REMARK   88  A    between atoms: _205  and  _208
REMARK   89  A    between atoms: _208  and  _209
REMARK   90  A    between atoms: _212  and  _214
REMARK   91  A    between atoms: _214  and  _215
REMARK   92  A    between atoms: _214  and  _217
REMARK   93  A    between atoms: _217  and  _218
REMARK   94  A    between atoms: _223  and  _225
REMARK   95  A    between atoms: _225  and  _226
REMARK   96  A    between atoms: _225  and  _228
REMARK   97  A    between atoms: _228  and  _229
REMARK   98  A    between atoms: _234  and  _235
REMARK   99  A    between atoms: _237  and  _239
REMARK  100  A    between atoms: _239  and  _240
REMARK  101  A    between atoms: _239  and  _242
REMARK  102  A    between atoms: _242  and  _243
REMARK  103  A    between atoms: _246  and  _248
REMARK  104  A    between atoms: _248  and  _249
REMARK  105  A    between atoms: _248  and  _251
REMARK  106  A    between atoms: _251  and  _252
REMARK  107  A    between atoms: _255  and  _257
REMARK  108  A    between atoms: _257  and  _258
REMARK  109  A    between atoms: _257  and  _260
REMARK  110  A    between atoms: _260  and  _261
REMARK  111  A    between atoms: _264  and  _266
REMARK  112  A    between atoms: _266  and  _267
REMARK  113  A    between atoms: _266  and  _269
REMARK  114  A    between atoms: _269  and  _270
REMARK  115  A    between atoms: _275  and  _277
REMARK  116  A    between atoms: _277  and  _278
REMARK  117  A    between atoms: _277  and  _280
REMARK  118  A    between atoms: _280  and  _281
REMARK  119  A    between atoms: _284  and  _286
REMARK  120  A    between atoms: _286  and  _287
REMARK  121  A    between atoms: _286  and  _289
REMARK  122  A    between atoms: _289  and  _290
REMARK  123  A    between atoms: _296  and  _298
REMARK  124  A    between atoms: _298  and  _299
REMARK  125  A    between atoms: _298  and  _301
REMARK  126  A    between atoms: _301  and  _302
REMARK  127  A    between atoms: _304  and  _306
REMARK  128  A    between atoms: _306  and  _307
REMARK  129  A    between atoms: _310  and  _312
REMARK  130  A    between atoms: _312  and  _313
REMARK  131  A    between atoms: _312  and  _315
REMARK  132  A    between atoms: _315  and  _316
REMARK  133  A    between atoms: _321  and  _323
REMARK  134  A    between atoms: _323  and  _324
REMARK  135  A    between atoms: _323  and  _326
REMARK  136  A    between atoms: _326  and  _327
REMARK  137  A    between atoms: _327  and  _328
REMARK  138  A    between atoms: _328  and  _329
REMARK  139  A    between atoms: _338  and  _340
REMARK  140  A    between atoms: _340  and  _341
REMARK  141  A    between atoms: _340  and  _343
REMARK  142  A    between atoms: _343  and  _344
REMARK  143  A    between atoms: _347  and  _349
REMARK  144  A    between atoms: _349  and  _350
REMARK  145  A    between atoms: _349  and  _352
REMARK  146  A    between atoms: _352  and  _353
REMARK  147  A    between atoms: _353  and  _354
REMARK  148  A    between atoms: _354  and  _355
REMARK  149  A    between atoms: _364  and  _366
REMARK  150  A    between atoms: _366  and  _367
REMARK  151  A    between atoms: _366  and  _369
REMARK  152  A    between atoms: _369  and  _370
REMARK  153  A    between atoms: _375  and  _376
REMARK  154  A    between atoms: _378  and  _380
REMARK  155  A    between atoms: _380  and  _381
REMARK  156  A    between atoms: _380  and  _383
REMARK  157  A    between atoms: _386  and  _388
REMARK  158  A    between atoms: _388  and  _389
REMARK  159  A    between atoms: _388  and  _391
REMARK  160  A    between atoms: _391  and  _392
REMARK  161  A    between atoms: _397  and  _398
REMARK  162  A    between atoms: _400  and  _402
REMARK  163  A    between atoms: _402  and  _403
REMARK  164  A    between atoms: _402  and  _405
REMARK  165  A    between atoms: _405  and  _406
REMARK  166  A    between atoms: _408  and  _410
REMARK  167  A    between atoms: _410  and  _411
REMARK  168  A    between atoms: _413  and  _415
REMARK  169  A    between atoms: _415  and  _416
REMARK  170  A    between atoms: _415  and  _418
REMARK  171  A    between atoms: _421  and  _423
REMARK  172  A    between atoms: _423  and  _424
REMARK  173  A    between atoms: _427  and  _429
REMARK  174  A    between atoms: _429  and  _430
REMARK  175  A    between atoms: _429  and  _432
REMARK  176  A    between atoms: _432  and  _433
REMARK  177  A    between atoms: _438  and  _439
REMARK  178  A    between atoms: _441  and  _443
REMARK  179  A    between atoms: _443  and  _444
REMARK  180  A    between atoms: _443  and  _446
REMARK  181  A    between atoms: _446  and  _447
REMARK  182  A    between atoms: _449  and  _451
REMARK  183  A    between atoms: _451  and  _452
REMARK  184  A    between atoms: _455  and  _457
REMARK  185  A    between atoms: _457  and  _458
REMARK  186  A    between atoms: _461  and  _463
REMARK  187  A    between atoms: _463  and  _464
REMARK  188  A    between atoms: _463  and  _466
REMARK  189  A    between atoms: _466  and  _467
REMARK  190  A    between atoms: _467  and  _468
REMARK  191  A    between atoms: _468  and  _469
REMARK  192  A    between atoms: _469  and  _470
REMARK  193  A    between atoms: _474  and  _476
REMARK  194  A    between atoms: _476  and  _477
REMARK  195  A    between atoms: _476  and  _479
REMARK  196  A    between atoms: _479  and  _480
REMARK  197  A    between atoms: _483  and  _485
REMARK  198  A    between atoms: _485  and  _486
REMARK  199  A    between atoms: _485  and  _488
REMARK  200  A    between atoms: _488  and  _489
REMARK  201  A    between atoms: _492  and  _494
REMARK  202  A    between atoms: _494  and  _495
REMARK  203  A    between atoms: _494  and  _497
REMARK  204  A    between atoms: _497  and  _498
REMARK  205  A    between atoms: _501  and  _503
REMARK  206  A    between atoms: _503  and  _504
REMARK  207  A    between atoms: _503  and  _506
REMARK  208  A    between atoms: _506  and  _507
REMARK  209  A    between atoms: _512  and  _514
REMARK  210  A    between atoms: _514  and  _515
REMARK  211  A    between atoms: _514  and  _517
REMARK  212  A    between atoms: _517  and  _518
REMARK  213  A    between atoms: _523  and  _525
REMARK  214  A    between atoms: _525  and  _526
REMARK  215  A    between atoms: _529  and  _531
REMARK  216  A    between atoms: _531  and  _532
REMARK  217  A    between atoms: _531  and  _534
REMARK  218  A    between atoms: _534  and  _535
REMARK  219  A    between atoms: _535  and  _536
REMARK  220  A    between atoms: _539  and  _541
REMARK  221  A    between atoms: _541  and  _542
REMARK  222  A    between atoms: _541  and  _544
REMARK  223  A    between atoms: _544  and  _545
REMARK  224  A    between atoms: _545  and  _546
REMARK  225  A    between atoms: _546  and  _547
REMARK  226  A    between atoms: _547  and  _548
REMARK  227  A    between atoms: _552  and  _554
REMARK  228  A    between atoms: _554  and  _555
REMARK  229  A    between atoms: _554  and  _557
REMARK  230  A    between atoms: _557  and  _558
REMARK  231  A    between atoms: _560  and  _562
REMARK  232  A    between atoms: _562  and  _563
REMARK  233  A    between atoms: _565  and  _567
REMARK  234  A    between atoms: _567  and  _568
REMARK  235  A    between atoms: _567  and  _570
REMARK  236  A    between atoms: _570  and  _571
REMARK  237  A    between atoms: _574  and  _576
REMARK  238  A    between atoms: _576  and  _577
REMARK  239  A    between atoms: _576  and  _579
REMARK  240  A    between atoms: _579  and  _580
REMARK  241  A    between atoms: _580  and  _581
REMARK  242  A    between atoms: _584  and  _586
REMARK  243  A    between atoms: _586  and  _587
REMARK  244  A    between atoms: _586  and  _589
REMARK  245  A    between atoms: _589  and  _590
REMARK  246  A    between atoms: _590  and  _591
REMARK  247  A    between atoms: _591  and  _592
REMARK  248  A    between atoms: _601  and  _603
REMARK  249  A    between atoms: _603  and  _604
REMARK  250  A    between atoms: _603  and  _606
REMARK  251  A    between atoms: _606  and  _607
REMARK  252  A    between atoms: _612  and  _613
REMARK  253  A    between atoms: _615  and  _617
REMARK  254  A    between atoms: _617  and  _618
REMARK  255  A    between atoms: _617  and  _620
REMARK  256  A    between atoms: _620  and  _621
REMARK  257  A    between atoms: _621  and  _622
REMARK  258  A    between atoms: _625  and  _627
REMARK  259  A    between atoms: _627  and  _628
REMARK  260  A    between atoms: _627  and  _630
REMARK  261  A    between atoms: _630  and  _631
REMARK  262  A    between atoms: _634  and  _636
REMARK  263  A    between atoms: _636  and  _637
REMARK  264  A    between atoms: _636  and  _639
REMARK  265  A    between atoms: _639  and  _640
REMARK  266  A    between atoms: _646  and  _648
REMARK  267  A    between atoms: _648  and  _649
REMARK  268  A    between atoms: _648  and  _651
REMARK  269  A    between atoms: _651  and  _652
REMARK  270  A    between atoms: _652  and  _653
REMARK  271  A    between atoms: _658  and  _660
REMARK  272  A    between atoms: _660  and  _661
REMARK  273  A    between atoms: _660  and  _663
REMARK  274  A    between atoms: _666  and  _668
REMARK  275  A    between atoms: _668  and  _669
REMARK  276  A    between atoms: _668  and  _671
REMARK  277  A    between atoms: _671  and  _672
REMARK  278  A    between atoms: _678  and  _680
REMARK  279  A    between atoms: _680  and  _681
REMARK  280  A    between atoms: _680  and  _683
REMARK  281  A    between atoms: _686  and  _688
REMARK  282  A    between atoms: _688  and  _689
REMARK  283  A    between atoms: _688  and  _691
REMARK  284  A    between atoms: _691  and  _692
REMARK  285  A    between atoms: _695  and  _697
REMARK  286  A    between atoms: _697  and  _698
REMARK  287  A    between atoms: _697  and  _700
REMARK  288  A    between atoms: _700  and  _701
REMARK  289  A    between atoms: _706  and  _708
REMARK  290  A    between atoms: _708  and  _709
REMARK  291  A    between atoms: _708  and  _711
REMARK  292  A    between atoms: _711  and  _712
REMARK  293  A    between atoms: _712  and  _713
REMARK  294  A    between atoms: _713  and  _714
REMARK  295  A    between atoms: _714  and  _715
REMARK  296  A    between atoms: _719  and  _721
REMARK  297  A    between atoms: _721  and  _722
REMARK  298  A    between atoms: _724  and  _726
REMARK  299  A    between atoms: _726  and  _727
REMARK  300  A    between atoms: _726  and  _729
REMARK  301  A    between atoms: _729  and  _730
REMARK  302  A    between atoms: _733  and  _735
REMARK  303  A    between atoms: _735  and  _736
REMARK  304  A    between atoms: _735  and  _738
REMARK  305  A    between atoms: _738  and  _739
REMARK  306  A    between atoms: _739  and  _740
REMARK  307  A    between atoms: _745  and  _747
REMARK  308  A    between atoms: _747  and  _748
REMARK  309  A    between atoms: _747  and  _750
REMARK  310  A    between atoms: _750  and  _751
REMARK  311  A    between atoms: _751  and  _752
REMARK  312  A    between atoms: _755  and  _757
REMARK  313  A    between atoms: _757  and  _758
REMARK  314  A    between atoms: _757  and  _760
REMARK  315  A    between atoms: _763  and  _765
REMARK  316  A    between atoms: _765  and  _766
REMARK  317  A    between atoms: _765  and  _768
REMARK  318  A    between atoms: _768  and  _769
REMARK  319  A    between atoms: _769  and  _770
REMARK                            x       y       z     vdW  Elec       q    Type
REMARK                         _______ _______ _______ _____ _____    ______ ____
ROOT
ATOM      1  O   HOH     1       3.836  -1.495 158.907  0.00  0.00    +0.000 OA
ENDROOT
TORSDOF 0
REMARK  Name = ../refined-set-2016/3tmk/3tmk_pocket.pdb
REMARK  319 active torsions:
REMARK  status: ('A' for Active; 'I' for Inactive)
REMARK    1  A    between atoms: _1  and  _3
REMARK    2  A    between atoms: _3  and  _4
REMARK    3  A    between atoms: _3  and  _6
REMARK    4  A    between atoms: _6  and  _7
REMARK    5  A    between atoms: _10  and  _12
REMARK    6  A    between atoms: _12  and  _13
REMARK    7  A    between atoms: _12  and  _15
REMARK    8  A    between atoms: _15  and  _16
REMARK    9  A    between atoms: _16  and  _17
REMARK   10  A    between atoms: _20  and  _22
REMARK   11  A    between atoms: _22  and  _23
REMARK   12  A    between atoms: _25  and  _27
REMARK   13  A    between atoms: _27  and  _28
REMARK   14  A    between atoms: _27  and  _30
REMARK   15  A    between atoms: _30  and  _31
REMARK   16  A    between atoms: _34  and  _36
REMARK   17  A    between atoms: _36  and  _37
REMARK   18  A    between atoms: _36  and  _39
REMARK   19  A    between atoms: _39  and  _40
REMARK   20  A    between atoms: _43  and  _45
REMARK   21  A    between atoms: _45  and  _46
REMARK   22  A    between atoms: _45  and  _48
REMARK   23  A    between atoms: _48  and  _49
REMARK   24  A    between atoms: _49  and  _50
REMARK   25  A    between atoms: _50  and  _51
REMARK   26  A    between atoms: _60  and  _62
REMARK   27  A    between atoms: _62  and  _63
REMARK   28  A    between atoms: _62  and  _65
REMARK   29  A    between atoms: _65  and  _66
REMARK   30  A    between atoms: _69  and  _71
REMARK   31  A    between atoms: _71  and  _72
REMARK   32  A    between atoms: _74  and  _76
REMARK   33  A    between atoms: _76  and  _77
REMARK   34  A    between atoms: _76  and  _79
REMARK   35  A    between atoms: _79  and  _80
REMARK   36  A    between atoms: _80  and  _81
REMARK   37  A    between atoms: _81  and  _82
REMARK   38  A    between atoms: _82  and  _83
REMARK   39  A    between atoms: _87  and  _89
REMARK   40  A    between atoms: _89  and  _90
REMARK   41  A    between atoms: _89  and  _92
REMARK   42  A    between atoms: _92  and  _93
REMARK   43  A    between atoms: _96  and  _98
REMARK   44  A    between atoms: _98  and  _99
REMARK   45  A    between atoms: _98  and  _101
REMARK   46  A    between atoms: _101  and  _102
REMARK   47  A    between atoms: _105  and  _107
REMARK   48  A    between atoms: _107  and  _108
REMARK   49  A    between atoms: _107  and  _110
REMARK   50  A    between atoms: _110  and  _111
REMARK   51  A    between atoms: _111  and  _112
REMARK   52  A    between atoms: _117  and  _119
REMARK   53  A    between atoms: _119  and  _120
REMARK   54  A    between atoms: _119  and  _122
REMARK   55  A    between atoms: _124  and  _126
REMARK   56  A    between atoms: _126  and  _127
REMARK   57  A    between atoms: _126  and  _129
REMARK   58  A    between atoms: _129  and  _130
REMARK   59  A    between atoms: _135  and  _137
REMARK   60  A    between atoms: _137  and  _138
REMARK   61  A    between atoms: _137  and  _140
REMARK   62  A    between atoms: _140  and  _141
REMARK   63  A    between atoms: _144  and  _146
REMARK   64  A    between atoms: _146  and  _147
REMARK   65  A    between atoms: _146  and  _149
REMARK   66  A    between atoms: _149  and  _150
REMARK   67  A    between atoms: _150  and  _151
REMARK   68  A    between atoms: _151  and  _152
REMARK   69  A    between atoms: _152  and  _153
REMARK   70  A    between atoms: _157  and  _159
REMARK   71  A    between atoms: _159  and  _160
REMARK   72  A    between atoms: _159  and  _162
REMARK   73  A    between atoms: _162  and  _163
REMARK   74  A    between atoms: _170  and  _171
REMARK   75  A    between atoms: _176  and  _178
REMARK   76  A    between atoms: _178  and  _179
REMARK   77  A    between atoms: _178  and  _181
REMARK   78  A    between atoms: _181  and  _182
REMARK   79  A    between atoms: _182  and  _183
REMARK   80  A    between atoms: _186  and  _188
REMARK   81  A    between atoms: _188  and  _189
REMARK   82  A    between atoms: _188  and  _191
REMARK   83  A    between atoms: _191  and  _192
REMARK   84  A    between atoms: _192  and  _193
REMARK   85  A    between atoms: _193  and  _194
REMARK   86  A    between atoms: _203  and  _205
REMARK   87  A    between atoms: _205  and  _206
REMARK   88  A    between atoms: _205  and  _208
REMARK   89  A    between atoms: _208  and  _209
REMARK   90  A    between atoms: _212  and  _214
REMARK   91  A    between atoms: _214  and  _215
REMARK   92  A    between atoms: _214  and  _217
REMARK   93  A    between atoms: _217  and  _218
REMARK   94  A    between atoms: _223  and  _225
REMARK   95  A    between atoms: _225  and  _226
REMARK   96  A    between atoms: _225  and  _228
REMARK   97  A    between atoms: _228  and  _229
REMARK   98  A    between atoms: _234  and  _235
REMARK   99  A    between atoms: _237  and  _239
REMARK  100  A    between atoms: _239  and  _240
REMARK  101  A    between atoms: _239  and  _242
REMARK  102  A    between atoms: _242  and  _243
REMARK  103  A    between atoms: _246  and  _248
REMARK  104  A    between atoms: _248  and  _249
REMARK  105  A    between atoms: _248  and  _251
REMARK  106  A    between atoms: _251  and  _252
REMARK  107  A    between atoms: _255  and  _257
REMARK  108  A    between atoms: _257  and  _258
REMARK  109  A    between atoms: _257  and  _260
REMARK  110  A    between atoms: _260  and  _261
REMARK  111  A    between atoms: _264  and  _266
REMARK  112  A    between atoms: _266  and  _267
REMARK  113  A    between atoms: _266  and  _269
REMARK  114  A    between atoms: _269  and  _270
REMARK  115  A    between atoms: _275  and  _277
REMARK  116  A    between atoms: _277  and  _278
REMARK  117  A    between atoms: _277  and  _280
REMARK  118  A    between atoms: _280  and  _281
REMARK  119  A    between atoms: _284  and  _286
REMARK  120  A    between atoms: _286  and  _287
REMARK  121  A    between atoms: _286  and  _289
REMARK  122  A    between atoms: _289  and  _290
REMARK  123  A    between atoms: _296  and  _298
REMARK  124  A    between atoms: _298  and  _299
REMARK  125  A    between atoms: _298  and  _301
REMARK  126  A    between atoms: _301  and  _302
REMARK  127  A    between atoms: _304  and  _306
REMARK  128  A    between atoms: _306  and  _307
REMARK  129  A    between atoms: _310  and  _312
REMARK  130  A    between atoms: _312  and  _313
REMARK  131  A    between atoms: _312  and  _315
REMARK  132  A    between atoms: _315  and  _316
REMARK  133  A    between atoms: _321  and  _323
REMARK  134  A    between atoms: _323  and  _324
REMARK  135  A    between atoms: _323  and  _326
REMARK  136  A    between atoms: _326  and  _327
REMARK  137  A    between atoms: _327  and  _328
REMARK  138  A    between atoms: _328  and  _329
REMARK  139  A    between atoms: _338  and  _340
REMARK  140  A    between atoms: _340  and  _341
REMARK  141  A    between atoms: _340  and  _343
REMARK  142  A    between atoms: _343  and  _344
REMARK  143  A    between atoms: _347  and  _349
REMARK  144  A    between atoms: _349  and  _350
REMARK  145  A    between atoms: _349  and  _352
REMARK  146  A    between atoms: _352  and  _353
REMARK  147  A    between atoms: _353  and  _354
REMARK  148  A    between atoms: _354  and  _355
REMARK  149  A    between atoms: _364  and  _366
REMARK  150  A    between atoms: _366  and  _367
REMARK  151  A    between atoms: _366  and  _369
REMARK  152  A    between atoms: _369  and  _370
REMARK  153  A    between atoms: _375  and  _376
REMARK  154  A    between atoms: _378  and  _380
REMARK  155  A    between atoms: _380  and  _381
REMARK  156  A    between atoms: _380  and  _383
REMARK  157  A    between atoms: _386  and  _388
REMARK  158  A    between atoms: _388  and  _389
REMARK  159  A    between atoms: _388  and  _391
REMARK  160  A    between atoms: _391  and  _392
REMARK  161  A    between atoms: _397  and  _398
REMARK  162  A    between atoms: _400  and  _402
REMARK  163  A    between atoms: _402  and  _403
REMARK  164  A    between atoms: _402  and  _405
REMARK  165  A    between atoms: _405  and  _406
REMARK  166  A    between atoms: _408  and  _410
REMARK  167  A    between atoms: _410  and  _411
REMARK  168  A    between atoms: _413  and  _415
REMARK  169  A    between atoms: _415  and  _416
REMARK  170  A    between atoms: _415  and  _418
REMARK  171  A    between atoms: _421  and  _423
REMARK  172  A    between atoms: _423  and  _424
REMARK  173  A    between atoms: _427  and  _429
REMARK  174  A    between atoms: _429  and  _430
REMARK  175  A    between atoms: _429  and  _432
REMARK  176  A    between atoms: _432  and  _433
REMARK  177  A    between atoms: _438  and  _439
REMARK  178  A    between atoms: _441  and  _443
REMARK  179  A    between atoms: _443  and  _444
REMARK  180  A    between atoms: _443  and  _446
REMARK  181  A    between atoms: _446  and  _447
REMARK  182  A    between atoms: _449  and  _451
REMARK  183  A    between atoms: _451  and  _452
REMARK  184  A    between atoms: _455  and  _457
REMARK  185  A    between atoms: _457  and  _458
REMARK  186  A    between atoms: _461  and  _463
REMARK  187  A    between atoms: _463  and  _464
REMARK  188  A    between atoms: _463  and  _466
REMARK  189  A    between atoms: _466  and  _467
REMARK  190  A    between atoms: _467  and  _468
REMARK  191  A    between atoms: _468  and  _469
REMARK  192  A    between atoms: _469  and  _470
REMARK  193  A    between atoms: _474  and  _476
REMARK  194  A    between atoms: _476  and  _477
REMARK  195  A    between atoms: _476  and  _479
REMARK  196  A    between atoms: _479  and  _480
REMARK  197  A    between atoms: _483  and  _485
REMARK  198  A    between atoms: _485  and  _486
REMARK  199  A    between atoms: _485  and  _488
REMARK  200  A    between atoms: _488  and  _489
REMARK  201  A    between atoms: _492  and  _494
REMARK  202  A    between atoms: _494  and  _495
REMARK  203  A    between atoms: _494  and  _497
REMARK  204  A    between atoms: _497  and  _498
REMARK  205  A    between atoms: _501  and  _503
REMARK  206  A    between atoms: _503  and  _504
REMARK  207  A    between atoms: _503  and  _506
REMARK  208  A    between atoms: _506  and  _507
REMARK  209  A    between atoms: _512  and  _514
REMARK  210  A    between atoms: _514  and  _515
REMARK  211  A    between atoms: _514  and  _517
REMARK  212  A    between atoms: _517  and  _518
REMARK  213  A    between atoms: _523  and  _525
REMARK  214  A    between atoms: _525  and  _526
REMARK  215  A    between atoms: _529  and  _531
REMARK  216  A    between atoms: _531  and  _532
REMARK  217  A    between atoms: _531  and  _534
REMARK  218  A    between atoms: _534  and  _535
REMARK  219  A    between atoms: _535  and  _536
REMARK  220  A    between atoms: _539  and  _541
REMARK  221  A    between atoms: _541  and  _542
REMARK  222  A    between atoms: _541  and  _544
REMARK  223  A    between atoms: _544  and  _545
REMARK  224  A    between atoms: _545  and  _546
REMARK  225  A    between atoms: _546  and  _547
REMARK  226  A    between atoms: _547  and  _548
REMARK  227  A    between atoms: _552  and  _554
REMARK  228  A    between atoms: _554  and  _555
REMARK  229  A    between atoms: _554  and  _557
REMARK  230  A    between atoms: _557  and  _558
REMARK  231  A    between atoms: _560  and  _562
REMARK  232  A    between atoms: _562  and  _563
REMARK  233  A    between atoms: _565  and  _567
REMARK  234  A    between atoms: _567  and  _568
REMARK  235  A    between atoms: _567  and  _570
REMARK  236  A    between atoms: _570  and  _571
REMARK  237  A    between atoms: _574  and  _576
REMARK  238  A    between atoms: _576  and  _577
REMARK  239  A    between atoms: _576  and  _579
REMARK  240  A    between atoms: _579  and  _580
REMARK  241  A    between atoms: _580  and  _581
REMARK  242  A    between atoms: _584  and  _586
REMARK  243  A    between atoms: _586  and  _587
REMARK  244  A    between atoms: _586  and  _589
REMARK  245  A    between atoms: _589  and  _590
REMARK  246  A    between atoms: _590  and  _591
REMARK  247  A    between atoms: _591  and  _592
REMARK  248  A    between atoms: _601  and  _603
REMARK  249  A    between atoms: _603  and  _604
REMARK  250  A    between atoms: _603  and  _606
REMARK  251  A    between atoms: _606  and  _607
REMARK  252  A    between atoms: _612  and  _613
REMARK  253  A    between atoms: _615  and  _617
REMARK  254  A    between atoms: _617  and  _618
REMARK  255  A    between atoms: _617  and  _620
REMARK  256  A    between atoms: _620  and  _621
REMARK  257  A    between atoms: _621  and  _622
REMARK  258  A    between atoms: _625  and  _627
REMARK  259  A    between atoms: _627  and  _628
REMARK  260  A    between atoms: _627  and  _630
REMARK  261  A    between atoms: _630  and  _631
REMARK  262  A    between atoms: _634  and  _636
REMARK  263  A    between atoms: _636  and  _637
REMARK  264  A    between atoms: _636  and  _639
REMARK  265  A    between atoms: _639  and  _640
REMARK  266  A    between atoms: _646  and  _648
REMARK  267  A    between atoms: _648  and  _649
REMARK  268  A    between atoms: _648  and  _651
REMARK  269  A    between atoms: _651  and  _652
REMARK  270  A    between atoms: _652  and  _653
REMARK  271  A    between atoms: _658  and  _660
REMARK  272  A    between atoms: _660  and  _661
REMARK  273  A    between atoms: _660  and  _663
REMARK  274  A    between atoms: _666  and  _668
REMARK  275  A    between atoms: _668  and  _669
REMARK  276  A    between atoms: _668  and  _671
REMARK  277  A    between atoms: _671  and  _672
REMARK  278  A    between atoms: _678  and  _680
REMARK  279  A    between atoms: _680  and  _681
REMARK  280  A    between atoms: _680  and  _683
REMARK  281  A    between atoms: _686  and  _688
REMARK  282  A    between atoms: _688  and  _689
REMARK  283  A    between atoms: _688  and  _691
REMARK  284  A    between atoms: _691  and  _692
REMARK  285  A    between atoms: _695  and  _697
REMARK  286  A    between atoms: _697  and  _698
REMARK  287  A    between atoms: _697  and  _700
REMARK  288  A    between atoms: _700  and  _701
REMARK  289  A    between atoms: _706  and  _708
REMARK  290  A    between atoms: _708  and  _709
REMARK  291  A    between atoms: _708  and  _711
REMARK  292  A    between atoms: _711  and  _712
REMARK  293  A    between atoms: _712  and  _713
REMARK  294  A    between atoms: _713  and  _714
REMARK  295  A    between atoms: _714  and  _715
REMARK  296  A    between atoms: _719  and  _721
REMARK  297  A    between atoms: _721  and  _722
REMARK  298  A    between atoms: _724  and  _726
REMARK  299  A    between atoms: _726  and  _727
REMARK  300  A    between atoms: _726  and  _729
REMARK  301  A    between atoms: _729  and  _730
REMARK  302  A    between atoms: _733  and  _735
REMARK  303  A    between atoms: _735  and  _736
REMARK  304  A    between atoms: _735  and  _738
REMARK  305  A    between atoms: _738  and  _739
REMARK  306  A    between atoms: _739  and  _740
REMARK  307  A    between atoms: _745  and  _747
REMARK  308  A    between atoms: _747  and  _748
REMARK  309  A    between atoms: _747  and  _750
REMARK  310  A    between atoms: _750  and  _751
REMARK  311  A    between atoms: _751  and  _752
REMARK  312  A    between atoms: _755  and  _757
REMARK  313  A    between atoms: _757  and  _758
REMARK  314  A    between atoms: _757  and  _760
REMARK  315  A    between atoms: _763  and  _765
REMARK  316  A    between atoms: _765  and  _766
REMARK  317  A    between atoms: _765  and  _768
REMARK  318  A    between atoms: _768  and  _769
REMARK  319  A    between atoms: _769  and  _770
REMARK                            x       y       z     vdW  Elec       q    Type
REMARK                         _______ _______ _______ _____ _____    ______ ____
ROOT
ATOM      1  O   HOH     1      -2.908  -5.377 148.402  0.00  0.00    +0.000 OA
ENDROOT
TORSDOF 0
REMARK  Name = ../refined-set-2016/3tmk/3tmk_pocket.pdb
REMARK  319 active torsions:
REMARK  status: ('A' for Active; 'I' for Inactive)
REMARK    1  A    between atoms: _1  and  _3
REMARK    2  A    between atoms: _3  and  _4
REMARK    3  A    between atoms: _3  and  _6
REMARK    4  A    between atoms: _6  and  _7
REMARK    5  A    between atoms: _10  and  _12
REMARK    6  A    between atoms: _12  and  _13
REMARK    7  A    between atoms: _12  and  _15
REMARK    8  A    between atoms: _15  and  _16
REMARK    9  A    between atoms: _16  and  _17
REMARK   10  A    between atoms: _20  and  _22
REMARK   11  A    between atoms: _22  and  _23
REMARK   12  A    between atoms: _25  and  _27
REMARK   13  A    between atoms: _27  and  _28
REMARK   14  A    between atoms: _27  and  _30
REMARK   15  A    between atoms: _30  and  _31
REMARK   16  A    between atoms: _34  and  _36
REMARK   17  A    between atoms: _36  and  _37
REMARK   18  A    between atoms: _36  and  _39
REMARK   19  A    between atoms: _39  and  _40
REMARK   20  A    between atoms: _43  and  _45
REMARK   21  A    between atoms: _45  and  _46
REMARK   22  A    between atoms: _45  and  _48
REMARK   23  A    between atoms: _48  and  _49
REMARK   24  A    between atoms: _49  and  _50
REMARK   25  A    between atoms: _50  and  _51
REMARK   26  A    between atoms: _60  and  _62
REMARK   27  A    between atoms: _62  and  _63
REMARK   28  A    between atoms: _62  and  _65
REMARK   29  A    between atoms: _65  and  _66
REMARK   30  A    between atoms: _69  and  _71
REMARK   31  A    between atoms: _71  and  _72
REMARK   32  A    between atoms: _74  and  _76
REMARK   33  A    between atoms: _76  and  _77
REMARK   34  A    between atoms: _76  and  _79
REMARK   35  A    between atoms: _79  and  _80
REMARK   36  A    between atoms: _80  and  _81
REMARK   37  A    between atoms: _81  and  _82
REMARK   38  A    between atoms: _82  and  _83
REMARK   39  A    between atoms: _87  and  _89
REMARK   40  A    between atoms: _89  and  _90
REMARK   41  A    between atoms: _89  and  _92
REMARK   42  A    between atoms: _92  and  _93
REMARK   43  A    between atoms: _96  and  _98
REMARK   44  A    between atoms: _98  and  _99
REMARK   45  A    between atoms: _98  and  _101
REMARK   46  A    between atoms: _101  and  _102
REMARK   47  A    between atoms: _105  and  _107
REMARK   48  A    between atoms: _107  and  _108
REMARK   49  A    between atoms: _107  and  _110
REMARK   50  A    between atoms: _110  and  _111
REMARK   51  A    between atoms: _111  and  _112
REMARK   52  A    between atoms: _117  and  _119
REMARK   53  A    between atoms: _119  and  _120
REMARK   54  A    between atoms: _119  and  _122
REMARK   55  A    between atoms: _124  and  _126
REMARK   56  A    between atoms: _126  and  _127
REMARK   57  A    between atoms: _126  and  _129
REMARK   58  A    between atoms: _129  and  _130
REMARK   59  A    between atoms: _135  and  _137
REMARK   60  A    between atoms: _137  and  _138
REMARK   61  A    between atoms: _137  and  _140
REMARK   62  A    between atoms: _140  and  _141
REMARK   63  A    between atoms: _144  and  _146
REMARK   64  A    between atoms: _146  and  _147
REMARK   65  A    between atoms: _146  and  _149
REMARK   66  A    between atoms: _149  and  _150
REMARK   67  A    between atoms: _150  and  _151
REMARK   68  A    between atoms: _151  and  _152
REMARK   69  A    between atoms: _152  and  _153
REMARK   70  A    between atoms: _157  and  _159
REMARK   71  A    between atoms: _159  and  _160
REMARK   72  A    between atoms: _159  and  _162
REMARK   73  A    between atoms: _162  and  _163
REMARK   74  A    between atoms: _170  and  _171
REMARK   75  A    between atoms: _176  and  _178
REMARK   76  A    between atoms: _178  and  _179
REMARK   77  A    between atoms: _178  and  _181
REMARK   78  A    between atoms: _181  and  _182
REMARK   79  A    between atoms: _182  and  _183
REMARK   80  A    between atoms: _186  and  _188
REMARK   81  A    between atoms: _188  and  _189
REMARK   82  A    between atoms: _188  and  _191
REMARK   83  A    between atoms: _191  and  _192
REMARK   84  A    between atoms: _192  and  _193
REMARK   85  A    between atoms: _193  and  _194
REMARK   86  A    between atoms: _203  and  _205
REMARK   87  A    between atoms: _205  and  _206
REMARK   88  A    between atoms: _205  and  _208
REMARK   89  A    between atoms: _208  and  _209
REMARK   90  A    between atoms: _212  and  _214
REMARK   91  A    between atoms: _214  and  _215
REMARK   92  A    between atoms: _214  and  _217
REMARK   93  A    between atoms: _217  and  _218
REMARK   94  A    between atoms: _223  and  _225
REMARK   95  A    between atoms: _225  and  _226
REMARK   96  A    between atoms: _225  and  _228
REMARK   97  A    between atoms: _228  and  _229
REMARK   98  A    between atoms: _234  and  _235
REMARK   99  A    between atoms: _237  and  _239
REMARK  100  A    between atoms: _239  and  _240
REMARK  101  A    between atoms: _239  and  _242
REMARK  102  A    between atoms: _242  and  _243
REMARK  103  A    between atoms: _246  and  _248
REMARK  104  A    between atoms: _248  and  _249
REMARK  105  A    between atoms: _248  and  _251
REMARK  106  A    between atoms: _251  and  _252
REMARK  107  A    between atoms: _255  and  _257
REMARK  108  A    between atoms: _257  and  _258
REMARK  109  A    between atoms: _257  and  _260
REMARK  110  A    between atoms: _260  and  _261
REMARK  111  A    between atoms: _264  and  _266
REMARK  112  A    between atoms: _266  and  _267
REMARK  113  A    between atoms: _266  and  _269
REMARK  114  A    between atoms: _269  and  _270
REMARK  115  A    between atoms: _275  and  _277
REMARK  116  A    between atoms: _277  and  _278
REMARK  117  A    between atoms: _277  and  _280
REMARK  118  A    between atoms: _280  and  _281
REMARK  119  A    between atoms: _284  and  _286
REMARK  120  A    between atoms: _286  and  _287
REMARK  121  A    between atoms: _286  and  _289
REMARK  122  A    between atoms: _289  and  _290
REMARK  123  A    between atoms: _296  and  _298
REMARK  124  A    between atoms: _298  and  _299
REMARK  125  A    between atoms: _298  and  _301
REMARK  126  A    between atoms: _301  and  _302
REMARK  127  A    between atoms: _304  and  _306
REMARK  128  A    between atoms: _306  and  _307
REMARK  129  A    between atoms: _310  and  _312
REMARK  130  A    between atoms: _312  and  _313
REMARK  131  A    between atoms: _312  and  _315
REMARK  132  A    between atoms: _315  and  _316
REMARK  133  A    between atoms: _321  and  _323
REMARK  134  A    between atoms: _323  and  _324
REMARK  135  A    between atoms: _323  and  _326
REMARK  136  A    between atoms: _326  and  _327
REMARK  137  A    between atoms: _327  and  _328
REMARK  138  A    between atoms: _328  and  _329
REMARK  139  A    between atoms: _338  and  _340
REMARK  140  A    between atoms: _340  and  _341
REMARK  141  A    between atoms: _340  and  _343
REMARK  142  A    between atoms: _343  and  _344
REMARK  143  A    between atoms: _347  and  _349
REMARK  144  A    between atoms: _349  and  _350
REMARK  145  A    between atoms: _349  and  _352
REMARK  146  A    between atoms: _352  and  _353
REMARK  147  A    between atoms: _353  and  _354
REMARK  148  A    between atoms: _354  and  _355
REMARK  149  A    between atoms: _364  and  _366
REMARK  150  A    between atoms: _366  and  _367
REMARK  151  A    between atoms: _366  and  _369
REMARK  152  A    between atoms: _369  and  _370
REMARK  153  A    between atoms: _375  and  _376
REMARK  154  A    between atoms: _378  and  _380
REMARK  155  A    between atoms: _380  and  _381
REMARK  156  A    between atoms: _380  and  _383
REMARK  157  A    between atoms: _386  and  _388
REMARK  158  A    between atoms: _388  and  _389
REMARK  159  A    between atoms: _388  and  _391
REMARK  160  A    between atoms: _391  and  _392
REMARK  161  A    between atoms: _397  and  _398
REMARK  162  A    between atoms: _400  and  _402
REMARK  163  A    between atoms: _402  and  _403
REMARK  164  A    between atoms: _402  and  _405
REMARK  165  A    between atoms: _405  and  _406
REMARK  166  A    between atoms: _408  and  _410
REMARK  167  A    between atoms: _410  and  _411
REMARK  168  A    between atoms: _413  and  _415
REMARK  169  A    between atoms: _415  and  _416
REMARK  170  A    between atoms: _415  and  _418
REMARK  171  A    between atoms: _421  and  _423
REMARK  172  A    between atoms: _423  and  _424
REMARK  173  A    between atoms: _427  and  _429
REMARK  174  A    between atoms: _429  and  _430
REMARK  175  A    between atoms: _429  and  _432
REMARK  176  A    between atoms: _432  and  _433
REMARK  177  A    between atoms: _438  and  _439
REMARK  178  A    between atoms: _441  and  _443
REMARK  179  A    between atoms: _443  and  _444
REMARK  180  A    between atoms: _443  and  _446
REMARK  181  A    between atoms: _446  and  _447
REMARK  182  A    between atoms: _449  and  _451
REMARK  183  A    between atoms: _451  and  _452
REMARK  184  A    between atoms: _455  and  _457
REMARK  185  A    between atoms: _457  and  _458
REMARK  186  A    between atoms: _461  and  _463
REMARK  187  A    between atoms: _463  and  _464
REMARK  188  A    between atoms: _463  and  _466
REMARK  189  A    between atoms: _466  and  _467
REMARK  190  A    between atoms: _467  and  _468
REMARK  191  A    between atoms: _468  and  _469
REMARK  192  A    between atoms: _469  and  _470
REMARK  193  A    between atoms: _474  and  _476
REMARK  194  A    between atoms: _476  and  _477
REMARK  195  A    between atoms: _476  and  _479
REMARK  196  A    between atoms: _479  and  _480
REMARK  197  A    between atoms: _483  and  _485
REMARK  198  A    between atoms: _485  and  _486
REMARK  199  A    between atoms: _485  and  _488
REMARK  200  A    between atoms: _488  and  _489
REMARK  201  A    between atoms: _492  and  _494
REMARK  202  A    between atoms: _494  and  _495
REMARK  203  A    between atoms: _494  and  _497
REMARK  204  A    between atoms: _497  and  _498
REMARK  205  A    between atoms: _501  and  _503
REMARK  206  A    between atoms: _503  and  _504
REMARK  207  A    between atoms: _503  and  _506
REMARK  208  A    between atoms: _506  and  _507
REMARK  209  A    between atoms: _512  and  _514
REMARK  210  A    between atoms: _514  and  _515
REMARK  211  A    between atoms: _514  and  _517
REMARK  212  A    between atoms: _517  and  _518
REMARK  213  A    between atoms: _523  and  _525
REMARK  214  A    between atoms: _525  and  _526
REMARK  215  A    between atoms: _529  and  _531
REMARK  216  A    between atoms: _531  and  _532
REMARK  217  A    between atoms: _531  and  _534
REMARK  218  A    between atoms: _534  and  _535
REMARK  219  A    between atoms: _535  and  _536
REMARK  220  A    between atoms: _539  and  _541
REMARK  221  A    between atoms: _541  and  _542
REMARK  222  A    between atoms: _541  and  _544
REMARK  223  A    between atoms: _544  and  _545
REMARK  224  A    between atoms: _545  and  _546
REMARK  225  A    between atoms: _546  and  _547
REMARK  226  A    between atoms: _547  and  _548
REMARK  227  A    between atoms: _552  and  _554
REMARK  228  A    between atoms: _554  and  _555
REMARK  229  A    between atoms: _554  and  _557
REMARK  230  A    between atoms: _557  and  _558
REMARK  231  A    between atoms: _560  and  _562
REMARK  232  A    between atoms: _562  and  _563
REMARK  233  A    between atoms: _565  and  _567
REMARK  234  A    between atoms: _567  and  _568
REMARK  235  A    between atoms: _567  and  _570
REMARK  236  A    between atoms: _570  and  _571
REMARK  237  A    between atoms: _574  and  _576
REMARK  238  A    between atoms: _576  and  _577
REMARK  239  A    between atoms: _576  and  _579
REMARK  240  A    between atoms: _579  and  _580
REMARK  241  A    between atoms: _580  and  _581
REMARK  242  A    between atoms: _584  and  _586
REMARK  243  A    between atoms: _586  and  _587
REMARK  244  A    between atoms: _586  and  _589
REMARK  245  A    between atoms: _589  and  _590
REMARK  246  A    between atoms: _590  and  _591
REMARK  247  A    between atoms: _591  and  _592
REMARK  248  A    between atoms: _601  and  _603
REMARK  249  A    between atoms: _603  and  _604
REMARK  250  A    between atoms: _603  and  _606
REMARK  251  A    between atoms: _606  and  _607
REMARK  252  A    between atoms: _612  and  _613
REMARK  253  A    between atoms: _615  and  _617
REMARK  254  A    between atoms: _617  and  _618
REMARK  255  A    between atoms: _617  and  _620
REMARK  256  A    between atoms: _620  and  _621
REMARK  257  A    between atoms: _621  and  _622
REMARK  258  A    between atoms: _625  and  _627
REMARK  259  A    between atoms: _627  and  _628
REMARK  260  A    between atoms: _627  and  _630
REMARK  261  A    between atoms: _630  and  _631
REMARK  262  A    between atoms: _634  and  _636
REMARK  263  A    between atoms: _636  and  _637
REMARK  264  A    between atoms: _636  and  _639
REMARK  265  A    between atoms: _639  and  _640
REMARK  266  A    between atoms: _646  and  _648
REMARK  267  A    between atoms: _648  and  _649
REMARK  268  A    between atoms: _648  and  _651
REMARK  269  A    between atoms: _651  and  _652
REMARK  270  A    between atoms: _652  and  _653
REMARK  271  A    between atoms: _658  and  _660
REMARK  272  A    between atoms: _660  and  _661
REMARK  273  A    between atoms: _660  and  _663
REMARK  274  A    between atoms: _666  and  _668
REMARK  275  A    between atoms: _668  and  _669
REMARK  276  A    between atoms: _668  and  _671
REMARK  277  A    between atoms: _671  and  _672
REMARK  278  A    between atoms: _678  and  _680
REMARK  279  A    between atoms: _680  and  _681
REMARK  280  A    between atoms: _680  and  _683
REMARK  281  A    between atoms: _686  and  _688
REMARK  282  A    between atoms: _688  and  _689
REMARK  283  A    between atoms: _688  and  _691
REMARK  284  A    between atoms: _691  and  _692
REMARK  285  A    between atoms: _695  and  _697
REMARK  286  A    between atoms: _697  and  _698
REMARK  287  A    between atoms: _697  and  _700
REMARK  288  A    between atoms: _700  and  _701
REMARK  289  A    between atoms: _706  and  _708
REMARK  290  A    between atoms: _708  and  _709
REMARK  291  A    between atoms: _708  and  _711
REMARK  292  A    between atoms: _711  and  _712
REMARK  293  A    between atoms: _712  and  _713
REMARK  294  A    between atoms: _713  and  _714
REMARK  295  A    between atoms: _714  and  _715
REMARK  296  A    between atoms: _719  and  _721
REMARK  297  A    between atoms: _721  and  _722
REMARK  298  A    between atoms: _724  and  _726
REMARK  299  A    between atoms: _726  and  _727
REMARK  300  A    between atoms: _726  and  _729
REMARK  301  A    between atoms: _729  and  _730
REMARK  302  A    between atoms: _733  and  _735
REMARK  303  A    between atoms: _735  and  _736
REMARK  304  A    between atoms: _735  and  _738
REMARK  305  A    between atoms: _738  and  _739
REMARK  306  A    between atoms: _739  and  _740
REMARK  307  A    between atoms: _745  and  _747
REMARK  308  A    between atoms: _747  and  _748
REMARK  309  A    between atoms: _747  and  _750
REMARK  310  A    between atoms: _750  and  _751
REMARK  311  A    between atoms: _751  and  _752
REMARK  312  A    between atoms: _755  and  _757
REMARK  313  A    between atoms: _757  and  _758
REMARK  314  A    between atoms: _757  and  _760
REMARK  315  A    between atoms: _763  and  _765
REMARK  316  A    between atoms: _765  and  _766
REMARK  317  A    between atoms: _765  and  _768
REMARK  318  A    between atoms: _768  and  _769
REMARK  319  A    between atoms: _769  and  _770
REMARK                            x       y       z     vdW  Elec       q    Type
REMARK                         _______ _______ _______ _____ _____    ______ ____
ROOT
ATOM      1  O   HOH     1       4.773  -6.137 158.498  0.00  0.00    +0.000 OA
ENDROOT
TORSDOF 0
REMARK  Name = ../refined-set-2016/3tmk/3tmk_pocket.pdb
REMARK  319 active torsions:
REMARK  status: ('A' for Active; 'I' for Inactive)
REMARK    1  A    between atoms: _1  and  _3
REMARK    2  A    between atoms: _3  and  _4
REMARK    3  A    between atoms: _3  and  _6
REMARK    4  A    between atoms: _6  and  _7
REMARK    5  A    between atoms: _10  and  _12
REMARK    6  A    between atoms: _12  and  _13
REMARK    7  A    between atoms: _12  and  _15
REMARK    8  A    between atoms: _15  and  _16
REMARK    9  A    between atoms: _16  and  _17
REMARK   10  A    between atoms: _20  and  _22
REMARK   11  A    between atoms: _22  and  _23
REMARK   12  A    between atoms: _25  and  _27
REMARK   13  A    between atoms: _27  and  _28
REMARK   14  A    between atoms: _27  and  _30
REMARK   15  A    between atoms: _30  and  _31
REMARK   16  A    between atoms: _34  and  _36
REMARK   17  A    between atoms: _36  and  _37
REMARK   18  A    between atoms: _36  and  _39
REMARK   19  A    between atoms: _39  and  _40
REMARK   20  A    between atoms: _43  and  _45
REMARK   21  A    between atoms: _45  and  _46
REMARK   22  A    between atoms: _45  and  _48
REMARK   23  A    between atoms: _48  and  _49
REMARK   24  A    between atoms: _49  and  _50
REMARK   25  A    between atoms: _50  and  _51
REMARK   26  A    between atoms: _60  and  _62
REMARK   27  A    between atoms: _62  and  _63
REMARK   28  A    between atoms: _62  and  _65
REMARK   29  A    between atoms: _65  and  _66
REMARK   30  A    between atoms: _69  and  _71
REMARK   31  A    between atoms: _71  and  _72
REMARK   32  A    between atoms: _74  and  _76
REMARK   33  A    between atoms: _76  and  _77
REMARK   34  A    between atoms: _76  and  _79
REMARK   35  A    between atoms: _79  and  _80
REMARK   36  A    between atoms: _80  and  _81
REMARK   37  A    between atoms: _81  and  _82
REMARK   38  A    between atoms: _82  and  _83
REMARK   39  A    between atoms: _87  and  _89
REMARK   40  A    between atoms: _89  and  _90
REMARK   41  A    between atoms: _89  and  _92
REMARK   42  A    between atoms: _92  and  _93
REMARK   43  A    between atoms: _96  and  _98
REMARK   44  A    between atoms: _98  and  _99
REMARK   45  A    between atoms: _98  and  _101
REMARK   46  A    between atoms: _101  and  _102
REMARK   47  A    between atoms: _105  and  _107
REMARK   48  A    between atoms: _107  and  _108
REMARK   49  A    between atoms: _107  and  _110
REMARK   50  A    between atoms: _110  and  _111
REMARK   51  A    between atoms: _111  and  _112
REMARK   52  A    between atoms: _117  and  _119
REMARK   53  A    between atoms: _119  and  _120
REMARK   54  A    between atoms: _119  and  _122
REMARK   55  A    between atoms: _124  and  _126
REMARK   56  A    between atoms: _126  and  _127
REMARK   57  A    between atoms: _126  and  _129
REMARK   58  A    between atoms: _129  and  _130
REMARK   59  A    between atoms: _135  and  _137
REMARK   60  A    between atoms: _137  and  _138
REMARK   61  A    between atoms: _137  and  _140
REMARK   62  A    between atoms: _140  and  _141
REMARK   63  A    between atoms: _144  and  _146
REMARK   64  A    between atoms: _146  and  _147
REMARK   65  A    between atoms: _146  and  _149
REMARK   66  A    between atoms: _149  and  _150
REMARK   67  A    between atoms: _150  and  _151
REMARK   68  A    between atoms: _151  and  _152
REMARK   69  A    between atoms: _152  and  _153
REMARK   70  A    between atoms: _157  and  _159
REMARK   71  A    between atoms: _159  and  _160
REMARK   72  A    between atoms: _159  and  _162
REMARK   73  A    between atoms: _162  and  _163
REMARK   74  A    between atoms: _170  and  _171
REMARK   75  A    between atoms: _176  and  _178
REMARK   76  A    between atoms: _178  and  _179
REMARK   77  A    between atoms: _178  and  _181
REMARK   78  A    between atoms: _181  and  _182
REMARK   79  A    between atoms: _182  and  _183
REMARK   80  A    between atoms: _186  and  _188
REMARK   81  A    between atoms: _188  and  _189
REMARK   82  A    between atoms: _188  and  _191
REMARK   83  A    between atoms: _191  and  _192
REMARK   84  A    between atoms: _192  and  _193
REMARK   85  A    between atoms: _193  and  _194
REMARK   86  A    between atoms: _203  and  _205
REMARK   87  A    between atoms: _205  and  _206
REMARK   88  A    between atoms: _205  and  _208
REMARK   89  A    between atoms: _208  and  _209
REMARK   90  A    between atoms: _212  and  _214
REMARK   91  A    between atoms: _214  and  _215
REMARK   92  A    between atoms: _214  and  _217
REMARK   93  A    between atoms: _217  and  _218
REMARK   94  A    between atoms: _223  and  _225
REMARK   95  A    between atoms: _225  and  _226
REMARK   96  A    between atoms: _225  and  _228
REMARK   97  A    between atoms: _228  and  _229
REMARK   98  A    between atoms: _234  and  _235
REMARK   99  A    between atoms: _237  and  _239
REMARK  100  A    between atoms: _239  and  _240
REMARK  101  A    between atoms: _239  and  _242
REMARK  102  A    between atoms: _242  and  _243
REMARK  103  A    between atoms: _246  and  _248
REMARK  104  A    between atoms: _248  and  _249
REMARK  105  A    between atoms: _248  and  _251
REMARK  106  A    between atoms: _251  and  _252
REMARK  107  A    between atoms: _255  and  _257
REMARK  108  A    between atoms: _257  and  _258
REMARK  109  A    between atoms: _257  and  _260
REMARK  110  A    between atoms: _260  and  _261
REMARK  111  A    between atoms: _264  and  _266
REMARK  112  A    between atoms: _266  and  _267
REMARK  113  A    between atoms: _266  and  _269
REMARK  114  A    between atoms: _269  and  _270
REMARK  115  A    between atoms: _275  and  _277
REMARK  116  A    between atoms: _277  and  _278
REMARK  117  A    between atoms: _277  and  _280
REMARK  118  A    between atoms: _280  and  _281
REMARK  119  A    between atoms: _284  and  _286
REMARK  120  A    between atoms: _286  and  _287
REMARK  121  A    between atoms: _286  and  _289
REMARK  122  A    between atoms: _289  and  _290
REMARK  123  A    between atoms: _296  and  _298
REMARK  124  A    between atoms: _298  and  _299
REMARK  125  A    between atoms: _298  and  _301
REMARK  126  A    between atoms: _301  and  _302
REMARK  127  A    between atoms: _304  and  _306
REMARK  128  A    between atoms: _306  and  _307
REMARK  129  A    between atoms: _310  and  _312
REMARK  130  A    between atoms: _312  and  _313
REMARK  131  A    between atoms: _312  and  _315
REMARK  132  A    between atoms: _315  and  _316
REMARK  133  A    between atoms: _321  and  _323
REMARK  134  A    between atoms: _323  and  _324
REMARK  135  A    between atoms: _323  and  _326
REMARK  136  A    between atoms: _326  and  _327
REMARK  137  A    between atoms: _327  and  _328
REMARK  138  A    between atoms: _328  and  _329
REMARK  139  A    between atoms: _338  and  _340
REMARK  140  A    between atoms: _340  and  _341
REMARK  141  A    between atoms: _340  and  _343
REMARK  142  A    between atoms: _343  and  _344
REMARK  143  A    between atoms: _347  and  _349
REMARK  144  A    between atoms: _349  and  _350
REMARK  145  A    between atoms: _349  and  _352
REMARK  146  A    between atoms: _352  and  _353
REMARK  147  A    between atoms: _353  and  _354
REMARK  148  A    between atoms: _354  and  _355
REMARK  149  A    between atoms: _364  and  _366
REMARK  150  A    between atoms: _366  and  _367
REMARK  151  A    between atoms: _366  and  _369
REMARK  152  A    between atoms: _369  and  _370
REMARK  153  A    between atoms: _375  and  _376
REMARK  154  A    between atoms: _378  and  _380
REMARK  155  A    between atoms: _380  and  _381
REMARK  156  A    between atoms: _380  and  _383
REMARK  157  A    between atoms: _386  and  _388
REMARK  158  A    between atoms: _388  and  _389
REMARK  159  A    between atoms: _388  and  _391
REMARK  160  A    between atoms: _391  and  _392
REMARK  161  A    between atoms: _397  and  _398
REMARK  162  A    between atoms: _400  and  _402
REMARK  163  A    between atoms: _402  and  _403
REMARK  164  A    between atoms: _402  and  _405
REMARK  165  A    between atoms: _405  and  _406
REMARK  166  A    between atoms: _408  and  _410
REMARK  167  A    between atoms: _410  and  _411
REMARK  168  A    between atoms: _413  and  _415
REMARK  169  A    between atoms: _415  and  _416
REMARK  170  A    between atoms: _415  and  _418
REMARK  171  A    between atoms: _421  and  _423
REMARK  172  A    between atoms: _423  and  _424
REMARK  173  A    between atoms: _427  and  _429
REMARK  174  A    between atoms: _429  and  _430
REMARK  175  A    between atoms: _429  and  _432
REMARK  176  A    between atoms: _432  and  _433
REMARK  177  A    between atoms: _438  and  _439
REMARK  178  A    between atoms: _441  and  _443
REMARK  179  A    between atoms: _443  and  _444
REMARK  180  A    between atoms: _443  and  _446
REMARK  181  A    between atoms: _446  and  _447
REMARK  182  A    between atoms: _449  and  _451
REMARK  183  A    between atoms: _451  and  _452
REMARK  184  A    between atoms: _455  and  _457
REMARK  185  A    between atoms: _457  and  _458
REMARK  186  A    between atoms: _461  and  _463
REMARK  187  A    between atoms: _463  and  _464
REMARK  188  A    between atoms: _463  and  _466
REMARK  189  A    between atoms: _466  and  _467
REMARK  190  A    between atoms: _467  and  _468
REMARK  191  A    between atoms: _468  and  _469
REMARK  192  A    between atoms: _469  and  _470
REMARK  193  A    between atoms: _474  and  _476
REMARK  194  A    between atoms: _476  and  _477
REMARK  195  A    between atoms: _476  and  _479
REMARK  196  A    between atoms: _479  and  _480
REMARK  197  A    between atoms: _483  and  _485
REMARK  198  A    between atoms: _485  and  _486
REMARK  199  A    between atoms: _485  and  _488
REMARK  200  A    between atoms: _488  and  _489
REMARK  201  A    between atoms: _492  and  _494
REMARK  202  A    between atoms: _494  and  _495
REMARK  203  A    between atoms: _494  and  _497
REMARK  204  A    between atoms: _497  and  _498
REMARK  205  A    between atoms: _501  and  _503
REMARK  206  A    between atoms: _503  and  _504
REMARK  207  A    between atoms: _503  and  _506
REMARK  208  A    between atoms: _506  and  _507
REMARK  209  A    between atoms: _512  and  _514
REMARK  210  A    between atoms: _514  and  _515
REMARK  211  A    between atoms: _514  and  _517
REMARK  212  A    between atoms: _517  and  _518
REMARK  213  A    between atoms: _523  and  _525
REMARK  214  A    between atoms: _525  and  _526
REMARK  215  A    between atoms: _529  and  _531
REMARK  216  A    between atoms: _531  and  _532
REMARK  217  A    between atoms: _531  and  _534
REMARK  218  A    between atoms: _534  and  _535
REMARK  219  A    between atoms: _535  and  _536
REMARK  220  A    between atoms: _539  and  _541
REMARK  221  A    between atoms: _541  and  _542
REMARK  222  A    between atoms: _541  and  _544
REMARK  223  A    between atoms: _544  and  _545
REMARK  224  A    between atoms: _545  and  _546
REMARK  225  A    between atoms: _546  and  _547
REMARK  226  A    between atoms: _547  and  _548
REMARK  227  A    between atoms: _552  and  _554
REMARK  228  A    between atoms: _554  and  _555
REMARK  229  A    between atoms: _554  and  _557
REMARK  230  A    between atoms: _557  and  _558
REMARK  231  A    between atoms: _560  and  _562
REMARK  232  A    between atoms: _562  and  _563
REMARK  233  A    between atoms: _565  and  _567
REMARK  234  A    between atoms: _567  and  _568
REMARK  235  A    between atoms: _567  and  _570
REMARK  236  A    between atoms: _570  and  _571
REMARK  237  A    between atoms: _574  and  _576
REMARK  238  A    between atoms: _576  and  _577
REMARK  239  A    between atoms: _576  and  _579
REMARK  240  A    between atoms: _579  and  _580
REMARK  241  A    between atoms: _580  and  _581
REMARK  242  A    between atoms: _584  and  _586
REMARK  243  A    between atoms: _586  and  _587
REMARK  244  A    between atoms: _586  and  _589
REMARK  245  A    between atoms: _589  and  _590
REMARK  246  A    between atoms: _590  and  _591
REMARK  247  A    between atoms: _591  and  _592
REMARK  248  A    between atoms: _601  and  _603
REMARK  249  A    between atoms: _603  and  _604
REMARK  250  A    between atoms: _603  and  _606
REMARK  251  A    between atoms: _606  and  _607
REMARK  252  A    between atoms: _612  and  _613
REMARK  253  A    between atoms: _615  and  _617
REMARK  254  A    between atoms: _617  and  _618
REMARK  255  A    between atoms: _617  and  _620
REMARK  256  A    between atoms: _620  and  _621
REMARK  257  A    between atoms: _621  and  _622
REMARK  258  A    between atoms: _625  and  _627
REMARK  259  A    between atoms: _627  and  _628
REMARK  260  A    between atoms: _627  and  _630
REMARK  261  A    between atoms: _630  and  _631
REMARK  262  A    between atoms: _634  and  _636
REMARK  263  A    between atoms: _636  and  _637
REMARK  264  A    between atoms: _636  and  _639
REMARK  265  A    between atoms: _639  and  _640
REMARK  266  A    between atoms: _646  and  _648
REMARK  267  A    between atoms: _648  and  _649
REMARK  268  A    between atoms: _648  and  _651
REMARK  269  A    between atoms: _651  and  _652
REMARK  270  A    between atoms: _652  and  _653
REMARK  271  A    between atoms: _658  and  _660
REMARK  272  A    between atoms: _660  and  _661
REMARK  273  A    between atoms: _660  and  _663
REMARK  274  A    between atoms: _666  and  _668
REMARK  275  A    between atoms: _668  and  _669
REMARK  276  A    between atoms: _668  and  _671
REMARK  277  A    between atoms: _671  and  _672
REMARK  278  A    between atoms: _678  and  _680
REMARK  279  A    between atoms: _680  and  _681
REMARK  280  A    between atoms: _680  and  _683
REMARK  281  A    between atoms: _686  and  _688
REMARK  282  A    between atoms: _688  and  _689
REMARK  283  A    between atoms: _688  and  _691
REMARK  284  A    between atoms: _691  and  _692
REMARK  285  A    between atoms: _695  and  _697
REMARK  286  A    between atoms: _697  and  _698
REMARK  287  A    between atoms: _697  and  _700
REMARK  288  A    between atoms: _700  and  _701
REMARK  289  A    between atoms: _706  and  _708
REMARK  290  A    between atoms: _708  and  _709
REMARK  291  A    between atoms: _708  and  _711
REMARK  292  A    between atoms: _711  and  _712
REMARK  293  A    between atoms: _712  and  _713
REMARK  294  A    between atoms: _713  and  _714
REMARK  295  A    between atoms: _714  and  _715
REMARK  296  A    between atoms: _719  and  _721
REMARK  297  A    between atoms: _721  and  _722
REMARK  298  A    between atoms: _724  and  _726
REMARK  299  A    between atoms: _726  and  _727
REMARK  300  A    between atoms: _726  and  _729
REMARK  301  A    between atoms: _729  and  _730
REMARK  302  A    between atoms: _733  and  _735
REMARK  303  A    between atoms: _735  and  _736
REMARK  304  A    between atoms: _735  and  _738
REMARK  305  A    between atoms: _738  and  _739
REMARK  306  A    between atoms: _739  and  _740
REMARK  307  A    between atoms: _745  and  _747
REMARK  308  A    between atoms: _747  and  _748
REMARK  309  A    between atoms: _747  and  _750
REMARK  310  A    between atoms: _750  and  _751
REMARK  311  A    between atoms: _751  and  _752
REMARK  312  A    between atoms: _755  and  _757
REMARK  313  A    between atoms: _757  and  _758
REMARK  314  A    between atoms: _757  and  _760
REMARK  315  A    between atoms: _763  and  _765
REMARK  316  A    between atoms: _765  and  _766
REMARK  317  A    between atoms: _765  and  _768
REMARK  318  A    between atoms: _768  and  _769
REMARK  319  A    between atoms: _769  and  _770
REMARK                            x       y       z     vdW  Elec       q    Type
REMARK                         _______ _______ _______ _____ _____    ______ ____
ROOT
ATOM      1  O   HOH     1       5.490  -3.701 157.312  0.00  0.00    +0.000 OA
ENDROOT
TORSDOF 0
REMARK  Name = ../refined-set-2016/3tmk/3tmk_pocket.pdb
REMARK  319 active torsions:
REMARK  status: ('A' for Active; 'I' for Inactive)
REMARK    1  A    between atoms: _1  and  _3
REMARK    2  A    between atoms: _3  and  _4
REMARK    3  A    between atoms: _3  and  _6
REMARK    4  A    between atoms: _6  and  _7
REMARK    5  A    between atoms: _10  and  _12
REMARK    6  A    between atoms: _12  and  _13
REMARK    7  A    between atoms: _12  and  _15
REMARK    8  A    between atoms: _15  and  _16
REMARK    9  A    between atoms: _16  and  _17
REMARK   10  A    between atoms: _20  and  _22
REMARK   11  A    between atoms: _22  and  _23
REMARK   12  A    between atoms: _25  and  _27
REMARK   13  A    between atoms: _27  and  _28
REMARK   14  A    between atoms: _27  and  _30
REMARK   15  A    between atoms: _30  and  _31
REMARK   16  A    between atoms: _34  and  _36
REMARK   17  A    between atoms: _36  and  _37
REMARK   18  A    between atoms: _36  and  _39
REMARK   19  A    between atoms: _39  and  _40
REMARK   20  A    between atoms: _43  and  _45
REMARK   21  A    between atoms: _45  and  _46
REMARK   22  A    between atoms: _45  and  _48
REMARK   23  A    between atoms: _48  and  _49
REMARK   24  A    between atoms: _49  and  _50
REMARK   25  A    between atoms: _50  and  _51
REMARK   26  A    between atoms: _60  and  _62
REMARK   27  A    between atoms: _62  and  _63
REMARK   28  A    between atoms: _62  and  _65
REMARK   29  A    between atoms: _65  and  _66
REMARK   30  A    between atoms: _69  and  _71
REMARK   31  A    between atoms: _71  and  _72
REMARK   32  A    between atoms: _74  and  _76
REMARK   33  A    between atoms: _76  and  _77
REMARK   34  A    between atoms: _76  and  _79
REMARK   35  A    between atoms: _79  and  _80
REMARK   36  A    between atoms: _80  and  _81
REMARK   37  A    between atoms: _81  and  _82
REMARK   38  A    between atoms: _82  and  _83
REMARK   39  A    between atoms: _87  and  _89
REMARK   40  A    between atoms: _89  and  _90
REMARK   41  A    between atoms: _89  and  _92
REMARK   42  A    between atoms: _92  and  _93
REMARK   43  A    between atoms: _96  and  _98
REMARK   44  A    between atoms: _98  and  _99
REMARK   45  A    between atoms: _98  and  _101
REMARK   46  A    between atoms: _101  and  _102
REMARK   47  A    between atoms: _105  and  _107
REMARK   48  A    between atoms: _107  and  _108
REMARK   49  A    between atoms: _107  and  _110
REMARK   50  A    between atoms: _110  and  _111
REMARK   51  A    between atoms: _111  and  _112
REMARK   52  A    between atoms: _117  and  _119
REMARK   53  A    between atoms: _119  and  _120
REMARK   54  A    between atoms: _119  and  _122
REMARK   55  A    between atoms: _124  and  _126
REMARK   56  A    between atoms: _126  and  _127
REMARK   57  A    between atoms: _126  and  _129
REMARK   58  A    between atoms: _129  and  _130
REMARK   59  A    between atoms: _135  and  _137
REMARK   60  A    between atoms: _137  and  _138
REMARK   61  A    between atoms: _137  and  _140
REMARK   62  A    between atoms: _140  and  _141
REMARK   63  A    between atoms: _144  and  _146
REMARK   64  A    between atoms: _146  and  _147
REMARK   65  A    between atoms: _146  and  _149
REMARK   66  A    between atoms: _149  and  _150
REMARK   67  A    between atoms: _150  and  _151
REMARK   68  A    between atoms: _151  and  _152
REMARK   69  A    between atoms: _152  and  _153
REMARK   70  A    between atoms: _157  and  _159
REMARK   71  A    between atoms: _159  and  _160
REMARK   72  A    between atoms: _159  and  _162
REMARK   73  A    between atoms: _162  and  _163
REMARK   74  A    between atoms: _170  and  _171
REMARK   75  A    between atoms: _176  and  _178
REMARK   76  A    between atoms: _178  and  _179
REMARK   77  A    between atoms: _178  and  _181
REMARK   78  A    between atoms: _181  and  _182
REMARK   79  A    between atoms: _182  and  _183
REMARK   80  A    between atoms: _186  and  _188
REMARK   81  A    between atoms: _188  and  _189
REMARK   82  A    between atoms: _188  and  _191
REMARK   83  A    between atoms: _191  and  _192
REMARK   84  A    between atoms: _192  and  _193
REMARK   85  A    between atoms: _193  and  _194
REMARK   86  A    between atoms: _203  and  _205
REMARK   87  A    between atoms: _205  and  _206
REMARK   88  A    between atoms: _205  and  _208
REMARK   89  A    between atoms: _208  and  _209
REMARK   90  A    between atoms: _212  and  _214
REMARK   91  A    between atoms: _214  and  _215
REMARK   92  A    between atoms: _214  and  _217
REMARK   93  A    between atoms: _217  and  _218
REMARK   94  A    between atoms: _223  and  _225
REMARK   95  A    between atoms: _225  and  _226
REMARK   96  A    between atoms: _225  and  _228
REMARK   97  A    between atoms: _228  and  _229
REMARK   98  A    between atoms: _234  and  _235
REMARK   99  A    between atoms: _237  and  _239
REMARK  100  A    between atoms: _239  and  _240
REMARK  101  A    between atoms: _239  and  _242
REMARK  102  A    between atoms: _242  and  _243
REMARK  103  A    between atoms: _246  and  _248
REMARK  104  A    between atoms: _248  and  _249
REMARK  105  A    between atoms: _248  and  _251
REMARK  106  A    between atoms: _251  and  _252
REMARK  107  A    between atoms: _255  and  _257
REMARK  108  A    between atoms: _257  and  _258
REMARK  109  A    between atoms: _257  and  _260
REMARK  110  A    between atoms: _260  and  _261
REMARK  111  A    between atoms: _264  and  _266
REMARK  112  A    between atoms: _266  and  _267
REMARK  113  A    between atoms: _266  and  _269
REMARK  114  A    between atoms: _269  and  _270
REMARK  115  A    between atoms: _275  and  _277
REMARK  116  A    between atoms: _277  and  _278
REMARK  117  A    between atoms: _277  and  _280
REMARK  118  A    between atoms: _280  and  _281
REMARK  119  A    between atoms: _284  and  _286
REMARK  120  A    between atoms: _286  and  _287
REMARK  121  A    between atoms: _286  and  _289
REMARK  122  A    between atoms: _289  and  _290
REMARK  123  A    between atoms: _296  and  _298
REMARK  124  A    between atoms: _298  and  _299
REMARK  125  A    between atoms: _298  and  _301
REMARK  126  A    between atoms: _301  and  _302
REMARK  127  A    between atoms: _304  and  _306
REMARK  128  A    between atoms: _306  and  _307
REMARK  129  A    between atoms: _310  and  _312
REMARK  130  A    between atoms: _312  and  _313
REMARK  131  A    between atoms: _312  and  _315
REMARK  132  A    between atoms: _315  and  _316
REMARK  133  A    between atoms: _321  and  _323
REMARK  134  A    between atoms: _323  and  _324
REMARK  135  A    between atoms: _323  and  _326
REMARK  136  A    between atoms: _326  and  _327
REMARK  137  A    between atoms: _327  and  _328
REMARK  138  A    between atoms: _328  and  _329
REMARK  139  A    between atoms: _338  and  _340
REMARK  140  A    between atoms: _340  and  _341
REMARK  141  A    between atoms: _340  and  _343
REMARK  142  A    between atoms: _343  and  _344
REMARK  143  A    between atoms: _347  and  _349
REMARK  144  A    between atoms: _349  and  _350
REMARK  145  A    between atoms: _349  and  _352
REMARK  146  A    between atoms: _352  and  _353
REMARK  147  A    between atoms: _353  and  _354
REMARK  148  A    between atoms: _354  and  _355
REMARK  149  A    between atoms: _364  and  _366
REMARK  150  A    between atoms: _366  and  _367
REMARK  151  A    between atoms: _366  and  _369
REMARK  152  A    between atoms: _369  and  _370
REMARK  153  A    between atoms: _375  and  _376
REMARK  154  A    between atoms: _378  and  _380
REMARK  155  A    between atoms: _380  and  _381
REMARK  156  A    between atoms: _380  and  _383
REMARK  157  A    between atoms: _386  and  _388
REMARK  158  A    between atoms: _388  and  _389
REMARK  159  A    between atoms: _388  and  _391
REMARK  160  A    between atoms: _391  and  _392
REMARK  161  A    between atoms: _397  and  _398
REMARK  162  A    between atoms: _400  and  _402
REMARK  163  A    between atoms: _402  and  _403
REMARK  164  A    between atoms: _402  and  _405
REMARK  165  A    between atoms: _405  and  _406
REMARK  166  A    between atoms: _408  and  _410
REMARK  167  A    between atoms: _410  and  _411
REMARK  168  A    between atoms: _413  and  _415
REMARK  169  A    between atoms: _415  and  _416
REMARK  170  A    between atoms: _415  and  _418
REMARK  171  A    between atoms: _421  and  _423
REMARK  172  A    between atoms: _423  and  _424
REMARK  173  A    between atoms: _427  and  _429
REMARK  174  A    between atoms: _429  and  _430
REMARK  175  A    between atoms: _429  and  _432
REMARK  176  A    between atoms: _432  and  _433
REMARK  177  A    between atoms: _438  and  _439
REMARK  178  A    between atoms: _441  and  _443
REMARK  179  A    between atoms: _443  and  _444
REMARK  180  A    between atoms: _443  and  _446
REMARK  181  A    between atoms: _446  and  _447
REMARK  182  A    between atoms: _449  and  _451
REMARK  183  A    between atoms: _451  and  _452
REMARK  184  A    between atoms: _455  and  _457
REMARK  185  A    between atoms: _457  and  _458
REMARK  186  A    between atoms: _461  and  _463
REMARK  187  A    between atoms: _463  and  _464
REMARK  188  A    between atoms: _463  and  _466
REMARK  189  A    between atoms: _466  and  _467
REMARK  190  A    between atoms: _467  and  _468
REMARK  191  A    between atoms: _468  and  _469
REMARK  192  A    between atoms: _469  and  _470
REMARK  193  A    between atoms: _474  and  _476
REMARK  194  A    between atoms: _476  and  _477
REMARK  195  A    between atoms: _476  and  _479
REMARK  196  A    between atoms: _479  and  _480
REMARK  197  A    between atoms: _483  and  _485
REMARK  198  A    between atoms: _485  and  _486
REMARK  199  A    between atoms: _485  and  _488
REMARK  200  A    between atoms: _488  and  _489
REMARK  201  A    between atoms: _492  and  _494
REMARK  202  A    between atoms: _494  and  _495
REMARK  203  A    between atoms: _494  and  _497
REMARK  204  A    between atoms: _497  and  _498
REMARK  205  A    between atoms: _501  and  _503
REMARK  206  A    between atoms: _503  and  _504
REMARK  207  A    between atoms: _503  and  _506
REMARK  208  A    between atoms: _506  and  _507
REMARK  209  A    between atoms: _512  and  _514
REMARK  210  A    between atoms: _514  and  _515
REMARK  211  A    between atoms: _514  and  _517
REMARK  212  A    between atoms: _517  and  _518
REMARK  213  A    between atoms: _523  and  _525
REMARK  214  A    between atoms: _525  and  _526
REMARK  215  A    between atoms: _529  and  _531
REMARK  216  A    between atoms: _531  and  _532
REMARK  217  A    between atoms: _531  and  _534
REMARK  218  A    between atoms: _534  and  _535
REMARK  219  A    between atoms: _535  and  _536
REMARK  220  A    between atoms: _539  and  _541
REMARK  221  A    between atoms: _541  and  _542
REMARK  222  A    between atoms: _541  and  _544
REMARK  223  A    between atoms: _544  and  _545
REMARK  224  A    between atoms: _545  and  _546
REMARK  225  A    between atoms: _546  and  _547
REMARK  226  A    between atoms: _547  and  _548
REMARK  227  A    between atoms: _552  and  _554
REMARK  228  A    between atoms: _554  and  _555
REMARK  229  A    between atoms: _554  and  _557
REMARK  230  A    between atoms: _557  and  _558
REMARK  231  A    between atoms: _560  and  _562
REMARK  232  A    between atoms: _562  and  _563
REMARK  233  A    between atoms: _565  and  _567
REMARK  234  A    between atoms: _567  and  _568
REMARK  235  A    between atoms: _567  and  _570
REMARK  236  A    between atoms: _570  and  _571
REMARK  237  A    between atoms: _574  and  _576
REMARK  238  A    between atoms: _576  and  _577
REMARK  239  A    between atoms: _576  and  _579
REMARK  240  A    between atoms: _579  and  _580
REMARK  241  A    between atoms: _580  and  _581
REMARK  242  A    between atoms: _584  and  _586
REMARK  243  A    between atoms: _586  and  _587
REMARK  244  A    between atoms: _586  and  _589
REMARK  245  A    between atoms: _589  and  _590
REMARK  246  A    between atoms: _590  and  _591
REMARK  247  A    between atoms: _591  and  _592
REMARK  248  A    between atoms: _601  and  _603
REMARK  249  A    between atoms: _603  and  _604
REMARK  250  A    between atoms: _603  and  _606
REMARK  251  A    between atoms: _606  and  _607
REMARK  252  A    between atoms: _612  and  _613
REMARK  253  A    between atoms: _615  and  _617
REMARK  254  A    between atoms: _617  and  _618
REMARK  255  A    between atoms: _617  and  _620
REMARK  256  A    between atoms: _620  and  _621
REMARK  257  A    between atoms: _621  and  _622
REMARK  258  A    between atoms: _625  and  _627
REMARK  259  A    between atoms: _627  and  _628
REMARK  260  A    between atoms: _627  and  _630
REMARK  261  A    between atoms: _630  and  _631
REMARK  262  A    between atoms: _634  and  _636
REMARK  263  A    between atoms: _636  and  _637
REMARK  264  A    between atoms: _636  and  _639
REMARK  265  A    between atoms: _639  and  _640
REMARK  266  A    between atoms: _646  and  _648
REMARK  267  A    between atoms: _648  and  _649
REMARK  268  A    between atoms: _648  and  _651
REMARK  269  A    between atoms: _651  and  _652
REMARK  270  A    between atoms: _652  and  _653
REMARK  271  A    between atoms: _658  and  _660
REMARK  272  A    between atoms: _660  and  _661
REMARK  273  A    between atoms: _660  and  _663
REMARK  274  A    between atoms: _666  and  _668
REMARK  275  A    between atoms: _668  and  _669
REMARK  276  A    between atoms: _668  and  _671
REMARK  277  A    between atoms: _671  and  _672
REMARK  278  A    between atoms: _678  and  _680
REMARK  279  A    between atoms: _680  and  _681
REMARK  280  A    between atoms: _680  and  _683
REMARK  281  A    between atoms: _686  and  _688
REMARK  282  A    between atoms: _688  and  _689
REMARK  283  A    between atoms: _688  and  _691
REMARK  284  A    between atoms: _691  and  _692
REMARK  285  A    between atoms: _695  and  _697
REMARK  286  A    between atoms: _697  and  _698
REMARK  287  A    between atoms: _697  and  _700
REMARK  288  A    between atoms: _700  and  _701
REMARK  289  A    between atoms: _706  and  _708
REMARK  290  A    between atoms: _708  and  _709
REMARK  291  A    between atoms: _708  and  _711
REMARK  292  A    between atoms: _711  and  _712
REMARK  293  A    between atoms: _712  and  _713
REMARK  294  A    between atoms: _713  and  _714
REMARK  295  A    between atoms: _714  and  _715
REMARK  296  A    between atoms: _719  and  _721
REMARK  297  A    between atoms: _721  and  _722
REMARK  298  A    between atoms: _724  and  _726
REMARK  299  A    between atoms: _726  and  _727
REMARK  300  A    between atoms: _726  and  _729
REMARK  301  A    between atoms: _729  and  _730
REMARK  302  A    between atoms: _733  and  _735
REMARK  303  A    between atoms: _735  and  _736
REMARK  304  A    between atoms: _735  and  _738
REMARK  305  A    between atoms: _738  and  _739
REMARK  306  A    between atoms: _739  and  _740
REMARK  307  A    between atoms: _745  and  _747
REMARK  308  A    between atoms: _747  and  _748
REMARK  309  A    between atoms: _747  and  _750
REMARK  310  A    between atoms: _750  and  _751
REMARK  311  A    between atoms: _751  and  _752
REMARK  312  A    between atoms: _755  and  _757
REMARK  313  A    between atoms: _757  and  _758
REMARK  314  A    between atoms: _757  and  _760
REMARK  315  A    between atoms: _763  and  _765
REMARK  316  A    between atoms: _765  and  _766
REMARK  317  A    between atoms: _765  and  _768
REMARK  318  A    between atoms: _768  and  _769
REMARK  319  A    between atoms: _769  and  _770
REMARK                            x       y       z     vdW  Elec       q    Type
REMARK                         _______ _______ _______ _____ _____    ______ ____
ROOT
ATOM      1  O   HOH     1      -2.959   0.716 149.573  0.00  0.00    +0.000 OA
ENDROOT
TORSDOF 0
REMARK  Name = ../refined-set-2016/3tmk/3tmk_pocket.pdb
REMARK  319 active torsions:
REMARK  status: ('A' for Active; 'I' for Inactive)
REMARK    1  A    between atoms: _1  and  _3
REMARK    2  A    between atoms: _3  and  _4
REMARK    3  A    between atoms: _3  and  _6
REMARK    4  A    between atoms: _6  and  _7
REMARK    5  A    between atoms: _10  and  _12
REMARK    6  A    between atoms: _12  and  _13
REMARK    7  A    between atoms: _12  and  _15
REMARK    8  A    between atoms: _15  and  _16
REMARK    9  A    between atoms: _16  and  _17
REMARK   10  A    between atoms: _20  and  _22
REMARK   11  A    between atoms: _22  and  _23
REMARK   12  A    between atoms: _25  and  _27
REMARK   13  A    between atoms: _27  and  _28
REMARK   14  A    between atoms: _27  and  _30
REMARK   15  A    between atoms: _30  and  _31
REMARK   16  A    between atoms: _34  and  _36
REMARK   17  A    between atoms: _36  and  _37
REMARK   18  A    between atoms: _36  and  _39
REMARK   19  A    between atoms: _39  and  _40
REMARK   20  A    between atoms: _43  and  _45
REMARK   21  A    between atoms: _45  and  _46
REMARK   22  A    between atoms: _45  and  _48
REMARK   23  A    between atoms: _48  and  _49
REMARK   24  A    between atoms: _49  and  _50
REMARK   25  A    between atoms: _50  and  _51
REMARK   26  A    between atoms: _60  and  _62
REMARK   27  A    between atoms: _62  and  _63
REMARK   28  A    between atoms: _62  and  _65
REMARK   29  A    between atoms: _65  and  _66
REMARK   30  A    between atoms: _69  and  _71
REMARK   31  A    between atoms: _71  and  _72
REMARK   32  A    between atoms: _74  and  _76
REMARK   33  A    between atoms: _76  and  _77
REMARK   34  A    between atoms: _76  and  _79
REMARK   35  A    between atoms: _79  and  _80
REMARK   36  A    between atoms: _80  and  _81
REMARK   37  A    between atoms: _81  and  _82
REMARK   38  A    between atoms: _82  and  _83
REMARK   39  A    between atoms: _87  and  _89
REMARK   40  A    between atoms: _89  and  _90
REMARK   41  A    between atoms: _89  and  _92
REMARK   42  A    between atoms: _92  and  _93
REMARK   43  A    between atoms: _96  and  _98
REMARK   44  A    between atoms: _98  and  _99
REMARK   45  A    between atoms: _98  and  _101
REMARK   46  A    between atoms: _101  and  _102
REMARK   47  A    between atoms: _105  and  _107
REMARK   48  A    between atoms: _107  and  _108
REMARK   49  A    between atoms: _107  and  _110
REMARK   50  A    between atoms: _110  and  _111
REMARK   51  A    between atoms: _111  and  _112
REMARK   52  A    between atoms: _117  and  _119
REMARK   53  A    between atoms: _119  and  _120
REMARK   54  A    between atoms: _119  and  _122
REMARK   55  A    between atoms: _124  and  _126
REMARK   56  A    between atoms: _126  and  _127
REMARK   57  A    between atoms: _126  and  _129
REMARK   58  A    between atoms: _129  and  _130
REMARK   59  A    between atoms: _135  and  _137
REMARK   60  A    between atoms: _137  and  _138
REMARK   61  A    between atoms: _137  and  _140
REMARK   62  A    between atoms: _140  and  _141
REMARK   63  A    between atoms: _144  and  _146
REMARK   64  A    between atoms: _146  and  _147
REMARK   65  A    between atoms: _146  and  _149
REMARK   66  A    between atoms: _149  and  _150
REMARK   67  A    between atoms: _150  and  _151
REMARK   68  A    between atoms: _151  and  _152
REMARK   69  A    between atoms: _152  and  _153
REMARK   70  A    between atoms: _157  and  _159
REMARK   71  A    between atoms: _159  and  _160
REMARK   72  A    between atoms: _159  and  _162
REMARK   73  A    between atoms: _162  and  _163
REMARK   74  A    between atoms: _170  and  _171
REMARK   75  A    between atoms: _176  and  _178
REMARK   76  A    between atoms: _178  and  _179
REMARK   77  A    between atoms: _178  and  _181
REMARK   78  A    between atoms: _181  and  _182
REMARK   79  A    between atoms: _182  and  _183
REMARK   80  A    between atoms: _186  and  _188
REMARK   81  A    between atoms: _188  and  _189
REMARK   82  A    between atoms: _188  and  _191
REMARK   83  A    between atoms: _191  and  _192
REMARK   84  A    between atoms: _192  and  _193
REMARK   85  A    between atoms: _193  and  _194
REMARK   86  A    between atoms: _203  and  _205
REMARK   87  A    between atoms: _205  and  _206
REMARK   88  A    between atoms: _205  and  _208
REMARK   89  A    between atoms: _208  and  _209
REMARK   90  A    between atoms: _212  and  _214
REMARK   91  A    between atoms: _214  and  _215
REMARK   92  A    between atoms: _214  and  _217
REMARK   93  A    between atoms: _217  and  _218
REMARK   94  A    between atoms: _223  and  _225
REMARK   95  A    between atoms: _225  and  _226
REMARK   96  A    between atoms: _225  and  _228
REMARK   97  A    between atoms: _228  and  _229
REMARK   98  A    between atoms: _234  and  _235
REMARK   99  A    between atoms: _237  and  _239
REMARK  100  A    between atoms: _239  and  _240
REMARK  101  A    between atoms: _239  and  _242
REMARK  102  A    between atoms: _242  and  _243
REMARK  103  A    between atoms: _246  and  _248
REMARK  104  A    between atoms: _248  and  _249
REMARK  105  A    between atoms: _248  and  _251
REMARK  106  A    between atoms: _251  and  _252
REMARK  107  A    between atoms: _255  and  _257
REMARK  108  A    between atoms: _257  and  _258
REMARK  109  A    between atoms: _257  and  _260
REMARK  110  A    between atoms: _260  and  _261
REMARK  111  A    between atoms: _264  and  _266
REMARK  112  A    between atoms: _266  and  _267
REMARK  113  A    between atoms: _266  and  _269
REMARK  114  A    between atoms: _269  and  _270
REMARK  115  A    between atoms: _275  and  _277
REMARK  116  A    between atoms: _277  and  _278
REMARK  117  A    between atoms: _277  and  _280
REMARK  118  A    between atoms: _280  and  _281
REMARK  119  A    between atoms: _284  and  _286
REMARK  120  A    between atoms: _286  and  _287
REMARK  121  A    between atoms: _286  and  _289
REMARK  122  A    between atoms: _289  and  _290
REMARK  123  A    between atoms: _296  and  _298
REMARK  124  A    between atoms: _298  and  _299
REMARK  125  A    between atoms: _298  and  _301
REMARK  126  A    between atoms: _301  and  _302
REMARK  127  A    between atoms: _304  and  _306
REMARK  128  A    between atoms: _306  and  _307
REMARK  129  A    between atoms: _310  and  _312
REMARK  130  A    between atoms: _312  and  _313
REMARK  131  A    between atoms: _312  and  _315
REMARK  132  A    between atoms: _315  and  _316
REMARK  133  A    between atoms: _321  and  _323
REMARK  134  A    between atoms: _323  and  _324
REMARK  135  A    between atoms: _323  and  _326
REMARK  136  A    between atoms: _326  and  _327
REMARK  137  A    between atoms: _327  and  _328
REMARK  138  A    between atoms: _328  and  _329
REMARK  139  A    between atoms: _338  and  _340
REMARK  140  A    between atoms: _340  and  _341
REMARK  141  A    between atoms: _340  and  _343
REMARK  142  A    between atoms: _343  and  _344
REMARK  143  A    between atoms: _347  and  _349
REMARK  144  A    between atoms: _349  and  _350
REMARK  145  A    between atoms: _349  and  _352
REMARK  146  A    between atoms: _352  and  _353
REMARK  147  A    between atoms: _353  and  _354
REMARK  148  A    between atoms: _354  and  _355
REMARK  149  A    between atoms: _364  and  _366
REMARK  150  A    between atoms: _366  and  _367
REMARK  151  A    between atoms: _366  and  _369
REMARK  152  A    between atoms: _369  and  _370
REMARK  153  A    between atoms: _375  and  _376
REMARK  154  A    between atoms: _378  and  _380
REMARK  155  A    between atoms: _380  and  _381
REMARK  156  A    between atoms: _380  and  _383
REMARK  157  A    between atoms: _386  and  _388
REMARK  158  A    between atoms: _388  and  _389
REMARK  159  A    between atoms: _388  and  _391
REMARK  160  A    between atoms: _391  and  _392
REMARK  161  A    between atoms: _397  and  _398
REMARK  162  A    between atoms: _400  and  _402
REMARK  163  A    between atoms: _402  and  _403
REMARK  164  A    between atoms: _402  and  _405
REMARK  165  A    between atoms: _405  and  _406
REMARK  166  A    between atoms: _408  and  _410
REMARK  167  A    between atoms: _410  and  _411
REMARK  168  A    between atoms: _413  and  _415
REMARK  169  A    between atoms: _415  and  _416
REMARK  170  A    between atoms: _415  and  _418
REMARK  171  A    between atoms: _421  and  _423
REMARK  172  A    between atoms: _423  and  _424
REMARK  173  A    between atoms: _427  and  _429
REMARK  174  A    between atoms: _429  and  _430
REMARK  175  A    between atoms: _429  and  _432
REMARK  176  A    between atoms: _432  and  _433
REMARK  177  A    between atoms: _438  and  _439
REMARK  178  A    between atoms: _441  and  _443
REMARK  179  A    between atoms: _443  and  _444
REMARK  180  A    between atoms: _443  and  _446
REMARK  181  A    between atoms: _446  and  _447
REMARK  182  A    between atoms: _449  and  _451
REMARK  183  A    between atoms: _451  and  _452
REMARK  184  A    between atoms: _455  and  _457
REMARK  185  A    between atoms: _457  and  _458
REMARK  186  A    between atoms: _461  and  _463
REMARK  187  A    between atoms: _463  and  _464
REMARK  188  A    between atoms: _463  and  _466
REMARK  189  A    between atoms: _466  and  _467
REMARK  190  A    between atoms: _467  and  _468
REMARK  191  A    between atoms: _468  and  _469
REMARK  192  A    between atoms: _469  and  _470
REMARK  193  A    between atoms: _474  and  _476
REMARK  194  A    between atoms: _476  and  _477
REMARK  195  A    between atoms: _476  and  _479
REMARK  196  A    between atoms: _479  and  _480
REMARK  197  A    between atoms: _483  and  _485
REMARK  198  A    between atoms: _485  and  _486
REMARK  199  A    between atoms: _485  and  _488
REMARK  200  A    between atoms: _488  and  _489
REMARK  201  A    between atoms: _492  and  _494
REMARK  202  A    between atoms: _494  and  _495
REMARK  203  A    between atoms: _494  and  _497
REMARK  204  A    between atoms: _497  and  _498
REMARK  205  A    between atoms: _501  and  _503
REMARK  206  A    between atoms: _503  and  _504
REMARK  207  A    between atoms: _503  and  _506
REMARK  208  A    between atoms: _506  and  _507
REMARK  209  A    between atoms: _512  and  _514
REMARK  210  A    between atoms: _514  and  _515
REMARK  211  A    between atoms: _514  and  _517
REMARK  212  A    between atoms: _517  and  _518
REMARK  213  A    between atoms: _523  and  _525
REMARK  214  A    between atoms: _525  and  _526
REMARK  215  A    between atoms: _529  and  _531
REMARK  216  A    between atoms: _531  and  _532
REMARK  217  A    between atoms: _531  and  _534
REMARK  218  A    between atoms: _534  and  _535
REMARK  219  A    between atoms: _535  and  _536
REMARK  220  A    between atoms: _539  and  _541
REMARK  221  A    between atoms: _541  and  _542
REMARK  222  A    between atoms: _541  and  _544
REMARK  223  A    between atoms: _544  and  _545
REMARK  224  A    between atoms: _545  and  _546
REMARK  225  A    between atoms: _546  and  _547
REMARK  226  A    between atoms: _547  and  _548
REMARK  227  A    between atoms: _552  and  _554
REMARK  228  A    between atoms: _554  and  _555
REMARK  229  A    between atoms: _554  and  _557
REMARK  230  A    between atoms: _557  and  _558
REMARK  231  A    between atoms: _560  and  _562
REMARK  232  A    between atoms: _562  and  _563
REMARK  233  A    between atoms: _565  and  _567
REMARK  234  A    between atoms: _567  and  _568
REMARK  235  A    between atoms: _567  and  _570
REMARK  236  A    between atoms: _570  and  _571
REMARK  237  A    between atoms: _574  and  _576
REMARK  238  A    between atoms: _576  and  _577
REMARK  239  A    between atoms: _576  and  _579
REMARK  240  A    between atoms: _579  and  _580
REMARK  241  A    between atoms: _580  and  _581
REMARK  242  A    between atoms: _584  and  _586
REMARK  243  A    between atoms: _586  and  _587
REMARK  244  A    between atoms: _586  and  _589
REMARK  245  A    between atoms: _589  and  _590
REMARK  246  A    between atoms: _590  and  _591
REMARK  247  A    between atoms: _591  and  _592
REMARK  248  A    between atoms: _601  and  _603
REMARK  249  A    between atoms: _603  and  _604
REMARK  250  A    between atoms: _603  and  _606
REMARK  251  A    between atoms: _606  and  _607
REMARK  252  A    between atoms: _612  and  _613
REMARK  253  A    between atoms: _615  and  _617
REMARK  254  A    between atoms: _617  and  _618
REMARK  255  A    between atoms: _617  and  _620
REMARK  256  A    between atoms: _620  and  _621
REMARK  257  A    between atoms: _621  and  _622
REMARK  258  A    between atoms: _625  and  _627
REMARK  259  A    between atoms: _627  and  _628
REMARK  260  A    between atoms: _627  and  _630
REMARK  261  A    between atoms: _630  and  _631
REMARK  262  A    between atoms: _634  and  _636
REMARK  263  A    between atoms: _636  and  _637
REMARK  264  A    between atoms: _636  and  _639
REMARK  265  A    between atoms: _639  and  _640
REMARK  266  A    between atoms: _646  and  _648
REMARK  267  A    between atoms: _648  and  _649
REMARK  268  A    between atoms: _648  and  _651
REMARK  269  A    between atoms: _651  and  _652
REMARK  270  A    between atoms: _652  and  _653
REMARK  271  A    between atoms: _658  and  _660
REMARK  272  A    between atoms: _660  and  _661
REMARK  273  A    between atoms: _660  and  _663
REMARK  274  A    between atoms: _666  and  _668
REMARK  275  A    between atoms: _668  and  _669
REMARK  276  A    between atoms: _668  and  _671
REMARK  277  A    between atoms: _671  and  _672
REMARK  278  A    between atoms: _678  and  _680
REMARK  279  A    between atoms: _680  and  _681
REMARK  280  A    between atoms: _680  and  _683
REMARK  281  A    between atoms: _686  and  _688
REMARK  282  A    between atoms: _688  and  _689
REMARK  283  A    between atoms: _688  and  _691
REMARK  284  A    between atoms: _691  and  _692
REMARK  285  A    between atoms: _695  and  _697
REMARK  286  A    between atoms: _697  and  _698
REMARK  287  A    between atoms: _697  and  _700
REMARK  288  A    between atoms: _700  and  _701
REMARK  289  A    between atoms: _706  and  _708
REMARK  290  A    between atoms: _708  and  _709
REMARK  291  A    between atoms: _708  and  _711
REMARK  292  A    between atoms: _711  and  _712
REMARK  293  A    between atoms: _712  and  _713
REMARK  294  A    between atoms: _713  and  _714
REMARK  295  A    between atoms: _714  and  _715
REMARK  296  A    between atoms: _719  and  _721
REMARK  297  A    between atoms: _721  and  _722
REMARK  298  A    between atoms: _724  and  _726
REMARK  299  A    between atoms: _726  and  _727
REMARK  300  A    between atoms: _726  and  _729
REMARK  301  A    between atoms: _729  and  _730
REMARK  302  A    between atoms: _733  and  _735
REMARK  303  A    between atoms: _735  and  _736
REMARK  304  A    between atoms: _735  and  _738
REMARK  305  A    between atoms: _738  and  _739
REMARK  306  A    between atoms: _739  and  _740
REMARK  307  A    between atoms: _745  and  _747
REMARK  308  A    between atoms: _747  and  _748
REMARK  309  A    between atoms: _747  and  _750
REMARK  310  A    between atoms: _750  and  _751
REMARK  311  A    between atoms: _751  and  _752
REMARK  312  A    between atoms: _755  and  _757
REMARK  313  A    between atoms: _757  and  _758
REMARK  314  A    between atoms: _757  and  _760
REMARK  315  A    between atoms: _763  and  _765
REMARK  316  A    between atoms: _765  and  _766
REMARK  317  A    between atoms: _765  and  _768
REMARK  318  A    between atoms: _768  and  _769
REMARK  319  A    between atoms: _769  and  _770
REMARK                            x       y       z     vdW  Elec       q    Type
REMARK                         _______ _______ _______ _____ _____    ______ ____
ROOT
ATOM      1  O   HOH     1       1.285  -7.358 162.500  0.00  0.00    +0.000 OA
ENDROOT
TORSDOF 0
REMARK  Name = ../refined-set-2016/3tmk/3tmk_pocket.pdb
REMARK  319 active torsions:
REMARK  status: ('A' for Active; 'I' for Inactive)
REMARK    1  A    between atoms: _1  and  _3
REMARK    2  A    between atoms: _3  and  _4
REMARK    3  A    between atoms: _3  and  _6
REMARK    4  A    between atoms: _6  and  _7
REMARK    5  A    between atoms: _10  and  _12
REMARK    6  A    between atoms: _12  and  _13
REMARK    7  A    between atoms: _12  and  _15
REMARK    8  A    between atoms: _15  and  _16
REMARK    9  A    between atoms: _16  and  _17
REMARK   10  A    between atoms: _20  and  _22
REMARK   11  A    between atoms: _22  and  _23
REMARK   12  A    between atoms: _25  and  _27
REMARK   13  A    between atoms: _27  and  _28
REMARK   14  A    between atoms: _27  and  _30
REMARK   15  A    between atoms: _30  and  _31
REMARK   16  A    between atoms: _34  and  _36
REMARK   17  A    between atoms: _36  and  _37
REMARK   18  A    between atoms: _36  and  _39
REMARK   19  A    between atoms: _39  and  _40
REMARK   20  A    between atoms: _43  and  _45
REMARK   21  A    between atoms: _45  and  _46
REMARK   22  A    between atoms: _45  and  _48
REMARK   23  A    between atoms: _48  and  _49
REMARK   24  A    between atoms: _49  and  _50
REMARK   25  A    between atoms: _50  and  _51
REMARK   26  A    between atoms: _60  and  _62
REMARK   27  A    between atoms: _62  and  _63
REMARK   28  A    between atoms: _62  and  _65
REMARK   29  A    between atoms: _65  and  _66
REMARK   30  A    between atoms: _69  and  _71
REMARK   31  A    between atoms: _71  and  _72
REMARK   32  A    between atoms: _74  and  _76
REMARK   33  A    between atoms: _76  and  _77
REMARK   34  A    between atoms: _76  and  _79
REMARK   35  A    between atoms: _79  and  _80
REMARK   36  A    between atoms: _80  and  _81
REMARK   37  A    between atoms: _81  and  _82
REMARK   38  A    between atoms: _82  and  _83
REMARK   39  A    between atoms: _87  and  _89
REMARK   40  A    between atoms: _89  and  _90
REMARK   41  A    between atoms: _89  and  _92
REMARK   42  A    between atoms: _92  and  _93
REMARK   43  A    between atoms: _96  and  _98
REMARK   44  A    between atoms: _98  and  _99
REMARK   45  A    between atoms: _98  and  _101
REMARK   46  A    between atoms: _101  and  _102
REMARK   47  A    between atoms: _105  and  _107
REMARK   48  A    between atoms: _107  and  _108
REMARK   49  A    between atoms: _107  and  _110
REMARK   50  A    between atoms: _110  and  _111
REMARK   51  A    between atoms: _111  and  _112
REMARK   52  A    between atoms: _117  and  _119
REMARK   53  A    between atoms: _119  and  _120
REMARK   54  A    between atoms: _119  and  _122
REMARK   55  A    between atoms: _124  and  _126
REMARK   56  A    between atoms: _126  and  _127
REMARK   57  A    between atoms: _126  and  _129
REMARK   58  A    between atoms: _129  and  _130
REMARK   59  A    between atoms: _135  and  _137
REMARK   60  A    between atoms: _137  and  _138
REMARK   61  A    between atoms: _137  and  _140
REMARK   62  A    between atoms: _140  and  _141
REMARK   63  A    between atoms: _144  and  _146
REMARK   64  A    between atoms: _146  and  _147
REMARK   65  A    between atoms: _146  and  _149
REMARK   66  A    between atoms: _149  and  _150
REMARK   67  A    between atoms: _150  and  _151
REMARK   68  A    between atoms: _151  and  _152
REMARK   69  A    between atoms: _152  and  _153
REMARK   70  A    between atoms: _157  and  _159
REMARK   71  A    between atoms: _159  and  _160
REMARK   72  A    between atoms: _159  and  _162
REMARK   73  A    between atoms: _162  and  _163
REMARK   74  A    between atoms: _170  and  _171
REMARK   75  A    between atoms: _176  and  _178
REMARK   76  A    between atoms: _178  and  _179
REMARK   77  A    between atoms: _178  and  _181
REMARK   78  A    between atoms: _181  and  _182
REMARK   79  A    between atoms: _182  and  _183
REMARK   80  A    between atoms: _186  and  _188
REMARK   81  A    between atoms: _188  and  _189
REMARK   82  A    between atoms: _188  and  _191
REMARK   83  A    between atoms: _191  and  _192
REMARK   84  A    between atoms: _192  and  _193
REMARK   85  A    between atoms: _193  and  _194
REMARK   86  A    between atoms: _203  and  _205
REMARK   87  A    between atoms: _205  and  _206
REMARK   88  A    between atoms: _205  and  _208
REMARK   89  A    between atoms: _208  and  _209
REMARK   90  A    between atoms: _212  and  _214
REMARK   91  A    between atoms: _214  and  _215
REMARK   92  A    between atoms: _214  and  _217
REMARK   93  A    between atoms: _217  and  _218
REMARK   94  A    between atoms: _223  and  _225
REMARK   95  A    between atoms: _225  and  _226
REMARK   96  A    between atoms: _225  and  _228
REMARK   97  A    between atoms: _228  and  _229
REMARK   98  A    between atoms: _234  and  _235
REMARK   99  A    between atoms: _237  and  _239
REMARK  100  A    between atoms: _239  and  _240
REMARK  101  A    between atoms: _239  and  _242
REMARK  102  A    between atoms: _242  and  _243
REMARK  103  A    between atoms: _246  and  _248
REMARK  104  A    between atoms: _248  and  _249
REMARK  105  A    between atoms: _248  and  _251
REMARK  106  A    between atoms: _251  and  _252
REMARK  107  A    between atoms: _255  and  _257
REMARK  108  A    between atoms: _257  and  _258
REMARK  109  A    between atoms: _257  and  _260
REMARK  110  A    between atoms: _260  and  _261
REMARK  111  A    between atoms: _264  and  _266
REMARK  112  A    between atoms: _266  and  _267
REMARK  113  A    between atoms: _266  and  _269
REMARK  114  A    between atoms: _269  and  _270
REMARK  115  A    between atoms: _275  and  _277
REMARK  116  A    between atoms: _277  and  _278
REMARK  117  A    between atoms: _277  and  _280
REMARK  118  A    between atoms: _280  and  _281
REMARK  119  A    between atoms: _284  and  _286
REMARK  120  A    between atoms: _286  and  _287
REMARK  121  A    between atoms: _286  and  _289
REMARK  122  A    between atoms: _289  and  _290
REMARK  123  A    between atoms: _296  and  _298
REMARK  124  A    between atoms: _298  and  _299
REMARK  125  A    between atoms: _298  and  _301
REMARK  126  A    between atoms: _301  and  _302
REMARK  127  A    between atoms: _304  and  _306
REMARK  128  A    between atoms: _306  and  _307
REMARK  129  A    between atoms: _310  and  _312
REMARK  130  A    between atoms: _312  and  _313
REMARK  131  A    between atoms: _312  and  _315
REMARK  132  A    between atoms: _315  and  _316
REMARK  133  A    between atoms: _321  and  _323
REMARK  134  A    between atoms: _323  and  _324
REMARK  135  A    between atoms: _323  and  _326
REMARK  136  A    between atoms: _326  and  _327
REMARK  137  A    between atoms: _327  and  _328
REMARK  138  A    between atoms: _328  and  _329
REMARK  139  A    between atoms: _338  and  _340
REMARK  140  A    between atoms: _340  and  _341
REMARK  141  A    between atoms: _340  and  _343
REMARK  142  A    between atoms: _343  and  _344
REMARK  143  A    between atoms: _347  and  _349
REMARK  144  A    between atoms: _349  and  _350
REMARK  145  A    between atoms: _349  and  _352
REMARK  146  A    between atoms: _352  and  _353
REMARK  147  A    between atoms: _353  and  _354
REMARK  148  A    between atoms: _354  and  _355
REMARK  149  A    between atoms: _364  and  _366
REMARK  150  A    between atoms: _366  and  _367
REMARK  151  A    between atoms: _366  and  _369
REMARK  152  A    between atoms: _369  and  _370
REMARK  153  A    between atoms: _375  and  _376
REMARK  154  A    between atoms: _378  and  _380
REMARK  155  A    between atoms: _380  and  _381
REMARK  156  A    between atoms: _380  and  _383
REMARK  157  A    between atoms: _386  and  _388
REMARK  158  A    between atoms: _388  and  _389
REMARK  159  A    between atoms: _388  and  _391
REMARK  160  A    between atoms: _391  and  _392
REMARK  161  A    between atoms: _397  and  _398
REMARK  162  A    between atoms: _400  and  _402
REMARK  163  A    between atoms: _402  and  _403
REMARK  164  A    between atoms: _402  and  _405
REMARK  165  A    between atoms: _405  and  _406
REMARK  166  A    between atoms: _408  and  _410
REMARK  167  A    between atoms: _410  and  _411
REMARK  168  A    between atoms: _413  and  _415
REMARK  169  A    between atoms: _415  and  _416
REMARK  170  A    between atoms: _415  and  _418
REMARK  171  A    between atoms: _421  and  _423
REMARK  172  A    between atoms: _423  and  _424
REMARK  173  A    between atoms: _427  and  _429
REMARK  174  A    between atoms: _429  and  _430
REMARK  175  A    between atoms: _429  and  _432
REMARK  176  A    between atoms: _432  and  _433
REMARK  177  A    between atoms: _438  and  _439
REMARK  178  A    between atoms: _441  and  _443
REMARK  179  A    between atoms: _443  and  _444
REMARK  180  A    between atoms: _443  and  _446
REMARK  181  A    between atoms: _446  and  _447
REMARK  182  A    between atoms: _449  and  _451
REMARK  183  A    between atoms: _451  and  _452
REMARK  184  A    between atoms: _455  and  _457
REMARK  185  A    between atoms: _457  and  _458
REMARK  186  A    between atoms: _461  and  _463
REMARK  187  A    between atoms: _463  and  _464
REMARK  188  A    between atoms: _463  and  _466
REMARK  189  A    between atoms: _466  and  _467
REMARK  190  A    between atoms: _467  and  _468
REMARK  191  A    between atoms: _468  and  _469
REMARK  192  A    between atoms: _469  and  _470
REMARK  193  A    between atoms: _474  and  _476
REMARK  194  A    between atoms: _476  and  _477
REMARK  195  A    between atoms: _476  and  _479
REMARK  196  A    between atoms: _479  and  _480
REMARK  197  A    between atoms: _483  and  _485
REMARK  198  A    between atoms: _485  and  _486
REMARK  199  A    between atoms: _485  and  _488
REMARK  200  A    between atoms: _488  and  _489
REMARK  201  A    between atoms: _492  and  _494
REMARK  202  A    between atoms: _494  and  _495
REMARK  203  A    between atoms: _494  and  _497
REMARK  204  A    between atoms: _497  and  _498
REMARK  205  A    between atoms: _501  and  _503
REMARK  206  A    between atoms: _503  and  _504
REMARK  207  A    between atoms: _503  and  _506
REMARK  208  A    between atoms: _506  and  _507
REMARK  209  A    between atoms: _512  and  _514
REMARK  210  A    between atoms: _514  and  _515
REMARK  211  A    between atoms: _514  and  _517
REMARK  212  A    between atoms: _517  and  _518
REMARK  213  A    between atoms: _523  and  _525
REMARK  214  A    between atoms: _525  and  _526
REMARK  215  A    between atoms: _529  and  _531
REMARK  216  A    between atoms: _531  and  _532
REMARK  217  A    between atoms: _531  and  _534
REMARK  218  A    between atoms: _534  and  _535
REMARK  219  A    between atoms: _535  and  _536
REMARK  220  A    between atoms: _539  and  _541
REMARK  221  A    between atoms: _541  and  _542
REMARK  222  A    between atoms: _541  and  _544
REMARK  223  A    between atoms: _544  and  _545
REMARK  224  A    between atoms: _545  and  _546
REMARK  225  A    between atoms: _546  and  _547
REMARK  226  A    between atoms: _547  and  _548
REMARK  227  A    between atoms: _552  and  _554
REMARK  228  A    between atoms: _554  and  _555
REMARK  229  A    between atoms: _554  and  _557
REMARK  230  A    between atoms: _557  and  _558
REMARK  231  A    between atoms: _560  and  _562
REMARK  232  A    between atoms: _562  and  _563
REMARK  233  A    between atoms: _565  and  _567
REMARK  234  A    between atoms: _567  and  _568
REMARK  235  A    between atoms: _567  and  _570
REMARK  236  A    between atoms: _570  and  _571
REMARK  237  A    between atoms: _574  and  _576
REMARK  238  A    between atoms: _576  and  _577
REMARK  239  A    between atoms: _576  and  _579
REMARK  240  A    between atoms: _579  and  _580
REMARK  241  A    between atoms: _580  and  _581
REMARK  242  A    between atoms: _584  and  _586
REMARK  243  A    between atoms: _586  and  _587
REMARK  244  A    between atoms: _586  and  _589
REMARK  245  A    between atoms: _589  and  _590
REMARK  246  A    between atoms: _590  and  _591
REMARK  247  A    between atoms: _591  and  _592
REMARK  248  A    between atoms: _601  and  _603
REMARK  249  A    between atoms: _603  and  _604
REMARK  250  A    between atoms: _603  and  _606
REMARK  251  A    between atoms: _606  and  _607
REMARK  252  A    between atoms: _612  and  _613
REMARK  253  A    between atoms: _615  and  _617
REMARK  254  A    between atoms: _617  and  _618
REMARK  255  A    between atoms: _617  and  _620
REMARK  256  A    between atoms: _620  and  _621
REMARK  257  A    between atoms: _621  and  _622
REMARK  258  A    between atoms: _625  and  _627
REMARK  259  A    between atoms: _627  and  _628
REMARK  260  A    between atoms: _627  and  _630
REMARK  261  A    between atoms: _630  and  _631
REMARK  262  A    between atoms: _634  and  _636
REMARK  263  A    between atoms: _636  and  _637
REMARK  264  A    between atoms: _636  and  _639
REMARK  265  A    between atoms: _639  and  _640
REMARK  266  A    between atoms: _646  and  _648
REMARK  267  A    between atoms: _648  and  _649
REMARK  268  A    between atoms: _648  and  _651
REMARK  269  A    between atoms: _651  and  _652
REMARK  270  A    between atoms: _652  and  _653
REMARK  271  A    between atoms: _658  and  _660
REMARK  272  A    between atoms: _660  and  _661
REMARK  273  A    between atoms: _660  and  _663
REMARK  274  A    between atoms: _666  and  _668
REMARK  275  A    between atoms: _668  and  _669
REMARK  276  A    between atoms: _668  and  _671
REMARK  277  A    between atoms: _671  and  _672
REMARK  278  A    between atoms: _678  and  _680
REMARK  279  A    between atoms: _680  and  _681
REMARK  280  A    between atoms: _680  and  _683
REMARK  281  A    between atoms: _686  and  _688
REMARK  282  A    between atoms: _688  and  _689
REMARK  283  A    between atoms: _688  and  _691
REMARK  284  A    between atoms: _691  and  _692
REMARK  285  A    between atoms: _695  and  _697
REMARK  286  A    between atoms: _697  and  _698
REMARK  287  A    between atoms: _697  and  _700
REMARK  288  A    between atoms: _700  and  _701
REMARK  289  A    between atoms: _706  and  _708
REMARK  290  A    between atoms: _708  and  _709
REMARK  291  A    between atoms: _708  and  _711
REMARK  292  A    between atoms: _711  and  _712
REMARK  293  A    between atoms: _712  and  _713
REMARK  294  A    between atoms: _713  and  _714
REMARK  295  A    between atoms: _714  and  _715
REMARK  296  A    between atoms: _719  and  _721
REMARK  297  A    between atoms: _721  and  _722
REMARK  298  A    between atoms: _724  and  _726
REMARK  299  A    between atoms: _726  and  _727
REMARK  300  A    between atoms: _726  and  _729
REMARK  301  A    between atoms: _729  and  _730
REMARK  302  A    between atoms: _733  and  _735
REMARK  303  A    between atoms: _735  and  _736
REMARK  304  A    between atoms: _735  and  _738
REMARK  305  A    between atoms: _738  and  _739
REMARK  306  A    between atoms: _739  and  _740
REMARK  307  A    between atoms: _745  and  _747
REMARK  308  A    between atoms: _747  and  _748
REMARK  309  A    between atoms: _747  and  _750
REMARK  310  A    between atoms: _750  and  _751
REMARK  311  A    between atoms: _751  and  _752
REMARK  312  A    between atoms: _755  and  _757
REMARK  313  A    between atoms: _757  and  _758
REMARK  314  A    between atoms: _757  and  _760
REMARK  315  A    between atoms: _763  and  _765
REMARK  316  A    between atoms: _765  and  _766
REMARK  317  A    between atoms: _765  and  _768
REMARK  318  A    between atoms: _768  and  _769
REMARK  319  A    between atoms: _769  and  _770
REMARK                            x       y       z     vdW  Elec       q    Type
REMARK                         _______ _______ _______ _____ _____    ______ ____
ROOT
ATOM      1  O   HOH     1      -1.100   0.260 165.357  0.00  0.00    +0.000 OA
ENDROOT
TORSDOF 0
REMARK  Name = ../refined-set-2016/3tmk/3tmk_pocket.pdb
REMARK  319 active torsions:
REMARK  status: ('A' for Active; 'I' for Inactive)
REMARK    1  A    between atoms: _1  and  _3
REMARK    2  A    between atoms: _3  and  _4
REMARK    3  A    between atoms: _3  and  _6
REMARK    4  A    between atoms: _6  and  _7
REMARK    5  A    between atoms: _10  and  _12
REMARK    6  A    between atoms: _12  and  _13
REMARK    7  A    between atoms: _12  and  _15
REMARK    8  A    between atoms: _15  and  _16
REMARK    9  A    between atoms: _16  and  _17
REMARK   10  A    between atoms: _20  and  _22
REMARK   11  A    between atoms: _22  and  _23
REMARK   12  A    between atoms: _25  and  _27
REMARK   13  A    between atoms: _27  and  _28
REMARK   14  A    between atoms: _27  and  _30
REMARK   15  A    between atoms: _30  and  _31
REMARK   16  A    between atoms: _34  and  _36
REMARK   17  A    between atoms: _36  and  _37
REMARK   18  A    between atoms: _36  and  _39
REMARK   19  A    between atoms: _39  and  _40
REMARK   20  A    between atoms: _43  and  _45
REMARK   21  A    between atoms: _45  and  _46
REMARK   22  A    between atoms: _45  and  _48
REMARK   23  A    between atoms: _48  and  _49
REMARK   24  A    between atoms: _49  and  _50
REMARK   25  A    between atoms: _50  and  _51
REMARK   26  A    between atoms: _60  and  _62
REMARK   27  A    between atoms: _62  and  _63
REMARK   28  A    between atoms: _62  and  _65
REMARK   29  A    between atoms: _65  and  _66
REMARK   30  A    between atoms: _69  and  _71
REMARK   31  A    between atoms: _71  and  _72
REMARK   32  A    between atoms: _74  and  _76
REMARK   33  A    between atoms: _76  and  _77
REMARK   34  A    between atoms: _76  and  _79
REMARK   35  A    between atoms: _79  and  _80
REMARK   36  A    between atoms: _80  and  _81
REMARK   37  A    between atoms: _81  and  _82
REMARK   38  A    between atoms: _82  and  _83
REMARK   39  A    between atoms: _87  and  _89
REMARK   40  A    between atoms: _89  and  _90
REMARK   41  A    between atoms: _89  and  _92
REMARK   42  A    between atoms: _92  and  _93
REMARK   43  A    between atoms: _96  and  _98
REMARK   44  A    between atoms: _98  and  _99
REMARK   45  A    between atoms: _98  and  _101
REMARK   46  A    between atoms: _101  and  _102
REMARK   47  A    between atoms: _105  and  _107
REMARK   48  A    between atoms: _107  and  _108
REMARK   49  A    between atoms: _107  and  _110
REMARK   50  A    between atoms: _110  and  _111
REMARK   51  A    between atoms: _111  and  _112
REMARK   52  A    between atoms: _117  and  _119
REMARK   53  A    between atoms: _119  and  _120
REMARK   54  A    between atoms: _119  and  _122
REMARK   55  A    between atoms: _124  and  _126
REMARK   56  A    between atoms: _126  and  _127
REMARK   57  A    between atoms: _126  and  _129
REMARK   58  A    between atoms: _129  and  _130
REMARK   59  A    between atoms: _135  and  _137
REMARK   60  A    between atoms: _137  and  _138
REMARK   61  A    between atoms: _137  and  _140
REMARK   62  A    between atoms: _140  and  _141
REMARK   63  A    between atoms: _144  and  _146
REMARK   64  A    between atoms: _146  and  _147
REMARK   65  A    between atoms: _146  and  _149
REMARK   66  A    between atoms: _149  and  _150
REMARK   67  A    between atoms: _150  and  _151
REMARK   68  A    between atoms: _151  and  _152
REMARK   69  A    between atoms: _152  and  _153
REMARK   70  A    between atoms: _157  and  _159
REMARK   71  A    between atoms: _159  and  _160
REMARK   72  A    between atoms: _159  and  _162
REMARK   73  A    between atoms: _162  and  _163
REMARK   74  A    between atoms: _170  and  _171
REMARK   75  A    between atoms: _176  and  _178
REMARK   76  A    between atoms: _178  and  _179
REMARK   77  A    between atoms: _178  and  _181
REMARK   78  A    between atoms: _181  and  _182
REMARK   79  A    between atoms: _182  and  _183
REMARK   80  A    between atoms: _186  and  _188
REMARK   81  A    between atoms: _188  and  _189
REMARK   82  A    between atoms: _188  and  _191
REMARK   83  A    between atoms: _191  and  _192
REMARK   84  A    between atoms: _192  and  _193
REMARK   85  A    between atoms: _193  and  _194
REMARK   86  A    between atoms: _203  and  _205
REMARK   87  A    between atoms: _205  and  _206
REMARK   88  A    between atoms: _205  and  _208
REMARK   89  A    between atoms: _208  and  _209
REMARK   90  A    between atoms: _212  and  _214
REMARK   91  A    between atoms: _214  and  _215
REMARK   92  A    between atoms: _214  and  _217
REMARK   93  A    between atoms: _217  and  _218
REMARK   94  A    between atoms: _223  and  _225
REMARK   95  A    between atoms: _225  and  _226
REMARK   96  A    between atoms: _225  and  _228
REMARK   97  A    between atoms: _228  and  _229
REMARK   98  A    between atoms: _234  and  _235
REMARK   99  A    between atoms: _237  and  _239
REMARK  100  A    between atoms: _239  and  _240
REMARK  101  A    between atoms: _239  and  _242
REMARK  102  A    between atoms: _242  and  _243
REMARK  103  A    between atoms: _246  and  _248
REMARK  104  A    between atoms: _248  and  _249
REMARK  105  A    between atoms: _248  and  _251
REMARK  106  A    between atoms: _251  and  _252
REMARK  107  A    between atoms: _255  and  _257
REMARK  108  A    between atoms: _257  and  _258
REMARK  109  A    between atoms: _257  and  _260
REMARK  110  A    between atoms: _260  and  _261
REMARK  111  A    between atoms: _264  and  _266
REMARK  112  A    between atoms: _266  and  _267
REMARK  113  A    between atoms: _266  and  _269
REMARK  114  A    between atoms: _269  and  _270
REMARK  115  A    between atoms: _275  and  _277
REMARK  116  A    between atoms: _277  and  _278
REMARK  117  A    between atoms: _277  and  _280
REMARK  118  A    between atoms: _280  and  _281
REMARK  119  A    between atoms: _284  and  _286
REMARK  120  A    between atoms: _286  and  _287
REMARK  121  A    between atoms: _286  and  _289
REMARK  122  A    between atoms: _289  and  _290
REMARK  123  A    between atoms: _296  and  _298
REMARK  124  A    between atoms: _298  and  _299
REMARK  125  A    between atoms: _298  and  _301
REMARK  126  A    between atoms: _301  and  _302
REMARK  127  A    between atoms: _304  and  _306
REMARK  128  A    between atoms: _306  and  _307
REMARK  129  A    between atoms: _310  and  _312
REMARK  130  A    between atoms: _312  and  _313
REMARK  131  A    between atoms: _312  and  _315
REMARK  132  A    between atoms: _315  and  _316
REMARK  133  A    between atoms: _321  and  _323
REMARK  134  A    between atoms: _323  and  _324
REMARK  135  A    between atoms: _323  and  _326
REMARK  136  A    between atoms: _326  and  _327
REMARK  137  A    between atoms: _327  and  _328
REMARK  138  A    between atoms: _328  and  _329
REMARK  139  A    between atoms: _338  and  _340
REMARK  140  A    between atoms: _340  and  _341
REMARK  141  A    between atoms: _340  and  _343
REMARK  142  A    between atoms: _343  and  _344
REMARK  143  A    between atoms: _347  and  _349
REMARK  144  A    between atoms: _349  and  _350
REMARK  145  A    between atoms: _349  and  _352
REMARK  146  A    between atoms: _352  and  _353
REMARK  147  A    between atoms: _353  and  _354
REMARK  148  A    between atoms: _354  and  _355
REMARK  149  A    between atoms: _364  and  _366
REMARK  150  A    between atoms: _366  and  _367
REMARK  151  A    between atoms: _366  and  _369
REMARK  152  A    between atoms: _369  and  _370
REMARK  153  A    between atoms: _375  and  _376
REMARK  154  A    between atoms: _378  and  _380
REMARK  155  A    between atoms: _380  and  _381
REMARK  156  A    between atoms: _380  and  _383
REMARK  157  A    between atoms: _386  and  _388
REMARK  158  A    between atoms: _388  and  _389
REMARK  159  A    between atoms: _388  and  _391
REMARK  160  A    between atoms: _391  and  _392
REMARK  161  A    between atoms: _397  and  _398
REMARK  162  A    between atoms: _400  and  _402
REMARK  163  A    between atoms: _402  and  _403
REMARK  164  A    between atoms: _402  and  _405
REMARK  165  A    between atoms: _405  and  _406
REMARK  166  A    between atoms: _408  and  _410
REMARK  167  A    between atoms: _410  and  _411
REMARK  168  A    between atoms: _413  and  _415
REMARK  169  A    between atoms: _415  and  _416
REMARK  170  A    between atoms: _415  and  _418
REMARK  171  A    between atoms: _421  and  _423
REMARK  172  A    between atoms: _423  and  _424
REMARK  173  A    between atoms: _427  and  _429
REMARK  174  A    between atoms: _429  and  _430
REMARK  175  A    between atoms: _429  and  _432
REMARK  176  A    between atoms: _432  and  _433
REMARK  177  A    between atoms: _438  and  _439
REMARK  178  A    between atoms: _441  and  _443
REMARK  179  A    between atoms: _443  and  _444
REMARK  180  A    between atoms: _443  and  _446
REMARK  181  A    between atoms: _446  and  _447
REMARK  182  A    between atoms: _449  and  _451
REMARK  183  A    between atoms: _451  and  _452
REMARK  184  A    between atoms: _455  and  _457
REMARK  185  A    between atoms: _457  and  _458
REMARK  186  A    between atoms: _461  and  _463
REMARK  187  A    between atoms: _463  and  _464
REMARK  188  A    between atoms: _463  and  _466
REMARK  189  A    between atoms: _466  and  _467
REMARK  190  A    between atoms: _467  and  _468
REMARK  191  A    between atoms: _468  and  _469
REMARK  192  A    between atoms: _469  and  _470
REMARK  193  A    between atoms: _474  and  _476
REMARK  194  A    between atoms: _476  and  _477
REMARK  195  A    between atoms: _476  and  _479
REMARK  196  A    between atoms: _479  and  _480
REMARK  197  A    between atoms: _483  and  _485
REMARK  198  A    between atoms: _485  and  _486
REMARK  199  A    between atoms: _485  and  _488
REMARK  200  A    between atoms: _488  and  _489
REMARK  201  A    between atoms: _492  and  _494
REMARK  202  A    between atoms: _494  and  _495
REMARK  203  A    between atoms: _494  and  _497
REMARK  204  A    between atoms: _497  and  _498
REMARK  205  A    between atoms: _501  and  _503
REMARK  206  A    between atoms: _503  and  _504
REMARK  207  A    between atoms: _503  and  _506
REMARK  208  A    between atoms: _506  and  _507
REMARK  209  A    between atoms: _512  and  _514
REMARK  210  A    between atoms: _514  and  _515
REMARK  211  A    between atoms: _514  and  _517
REMARK  212  A    between atoms: _517  and  _518
REMARK  213  A    between atoms: _523  and  _525
REMARK  214  A    between atoms: _525  and  _526
REMARK  215  A    between atoms: _529  and  _531
REMARK  216  A    between atoms: _531  and  _532
REMARK  217  A    between atoms: _531  and  _534
REMARK  218  A    between atoms: _534  and  _535
REMARK  219  A    between atoms: _535  and  _536
REMARK  220  A    between atoms: _539  and  _541
REMARK  221  A    between atoms: _541  and  _542
REMARK  222  A    between atoms: _541  and  _544
REMARK  223  A    between atoms: _544  and  _545
REMARK  224  A    between atoms: _545  and  _546
REMARK  225  A    between atoms: _546  and  _547
REMARK  226  A    between atoms: _547  and  _548
REMARK  227  A    between atoms: _552  and  _554
REMARK  228  A    between atoms: _554  and  _555
REMARK  229  A    between atoms: _554  and  _557
REMARK  230  A    between atoms: _557  and  _558
REMARK  231  A    between atoms: _560  and  _562
REMARK  232  A    between atoms: _562  and  _563
REMARK  233  A    between atoms: _565  and  _567
REMARK  234  A    between atoms: _567  and  _568
REMARK  235  A    between atoms: _567  and  _570
REMARK  236  A    between atoms: _570  and  _571
REMARK  237  A    between atoms: _574  and  _576
REMARK  238  A    between atoms: _576  and  _577
REMARK  239  A    between atoms: _576  and  _579
REMARK  240  A    between atoms: _579  and  _580
REMARK  241  A    between atoms: _580  and  _581
REMARK  242  A    between atoms: _584  and  _586
REMARK  243  A    between atoms: _586  and  _587
REMARK  244  A    between atoms: _586  and  _589
REMARK  245  A    between atoms: _589  and  _590
REMARK  246  A    between atoms: _590  and  _591
REMARK  247  A    between atoms: _591  and  _592
REMARK  248  A    between atoms: _601  and  _603
REMARK  249  A    between atoms: _603  and  _604
REMARK  250  A    between atoms: _603  and  _606
REMARK  251  A    between atoms: _606  and  _607
REMARK  252  A    between atoms: _612  and  _613
REMARK  253  A    between atoms: _615  and  _617
REMARK  254  A    between atoms: _617  and  _618
REMARK  255  A    between atoms: _617  and  _620
REMARK  256  A    between atoms: _620  and  _621
REMARK  257  A    between atoms: _621  and  _622
REMARK  258  A    between atoms: _625  and  _627
REMARK  259  A    between atoms: _627  and  _628
REMARK  260  A    between atoms: _627  and  _630
REMARK  261  A    between atoms: _630  and  _631
REMARK  262  A    between atoms: _634  and  _636
REMARK  263  A    between atoms: _636  and  _637
REMARK  264  A    between atoms: _636  and  _639
REMARK  265  A    between atoms: _639  and  _640
REMARK  266  A    between atoms: _646  and  _648
REMARK  267  A    between atoms: _648  and  _649
REMARK  268  A    between atoms: _648  and  _651
REMARK  269  A    between atoms: _651  and  _652
REMARK  270  A    between atoms: _652  and  _653
REMARK  271  A    between atoms: _658  and  _660
REMARK  272  A    between atoms: _660  and  _661
REMARK  273  A    between atoms: _660  and  _663
REMARK  274  A    between atoms: _666  and  _668
REMARK  275  A    between atoms: _668  and  _669
REMARK  276  A    between atoms: _668  and  _671
REMARK  277  A    between atoms: _671  and  _672
REMARK  278  A    between atoms: _678  and  _680
REMARK  279  A    between atoms: _680  and  _681
REMARK  280  A    between atoms: _680  and  _683
REMARK  281  A    between atoms: _686  and  _688
REMARK  282  A    between atoms: _688  and  _689
REMARK  283  A    between atoms: _688  and  _691
REMARK  284  A    between atoms: _691  and  _692
REMARK  285  A    between atoms: _695  and  _697
REMARK  286  A    between atoms: _697  and  _698
REMARK  287  A    between atoms: _697  and  _700
REMARK  288  A    between atoms: _700  and  _701
REMARK  289  A    between atoms: _706  and  _708
REMARK  290  A    between atoms: _708  and  _709
REMARK  291  A    between atoms: _708  and  _711
REMARK  292  A    between atoms: _711  and  _712
REMARK  293  A    between atoms: _712  and  _713
REMARK  294  A    between atoms: _713  and  _714
REMARK  295  A    between atoms: _714  and  _715
REMARK  296  A    between atoms: _719  and  _721
REMARK  297  A    between atoms: _721  and  _722
REMARK  298  A    between atoms: _724  and  _726
REMARK  299  A    between atoms: _726  and  _727
REMARK  300  A    between atoms: _726  and  _729
REMARK  301  A    between atoms: _729  and  _730
REMARK  302  A    between atoms: _733  and  _735
REMARK  303  A    between atoms: _735  and  _736
REMARK  304  A    between atoms: _735  and  _738
REMARK  305  A    between atoms: _738  and  _739
REMARK  306  A    between atoms: _739  and  _740
REMARK  307  A    between atoms: _745  and  _747
REMARK  308  A    between atoms: _747  and  _748
REMARK  309  A    between atoms: _747  and  _750
REMARK  310  A    between atoms: _750  and  _751
REMARK  311  A    between atoms: _751  and  _752
REMARK  312  A    between atoms: _755  and  _757
REMARK  313  A    between atoms: _757  and  _758
REMARK  314  A    between atoms: _757  and  _760
REMARK  315  A    between atoms: _763  and  _765
REMARK  316  A    between atoms: _765  and  _766
REMARK  317  A    between atoms: _765  and  _768
REMARK  318  A    between atoms: _768  and  _769
REMARK  319  A    between atoms: _769  and  _770
REMARK                            x       y       z     vdW  Elec       q    Type
REMARK                         _______ _______ _______ _____ _____    ______ ____
ROOT
ATOM      1  O   HOH     1      -0.749   4.588 158.580  0.00  0.00    +0.000 OA
ENDROOT
TORSDOF 0
REMARK  Name = ../refined-set-2016/3tmk/3tmk_pocket.pdb
REMARK  319 active torsions:
REMARK  status: ('A' for Active; 'I' for Inactive)
REMARK    1  A    between atoms: _1  and  _3
REMARK    2  A    between atoms: _3  and  _4
REMARK    3  A    between atoms: _3  and  _6
REMARK    4  A    between atoms: _6  and  _7
REMARK    5  A    between atoms: _10  and  _12
REMARK    6  A    between atoms: _12  and  _13
REMARK    7  A    between atoms: _12  and  _15
REMARK    8  A    between atoms: _15  and  _16
REMARK    9  A    between atoms: _16  and  _17
REMARK   10  A    between atoms: _20  and  _22
REMARK   11  A    between atoms: _22  and  _23
REMARK   12  A    between atoms: _25  and  _27
REMARK   13  A    between atoms: _27  and  _28
REMARK   14  A    between atoms: _27  and  _30
REMARK   15  A    between atoms: _30  and  _31
REMARK   16  A    between atoms: _34  and  _36
REMARK   17  A    between atoms: _36  and  _37
REMARK   18  A    between atoms: _36  and  _39
REMARK   19  A    between atoms: _39  and  _40
REMARK   20  A    between atoms: _43  and  _45
REMARK   21  A    between atoms: _45  and  _46
REMARK   22  A    between atoms: _45  and  _48
REMARK   23  A    between atoms: _48  and  _49
REMARK   24  A    between atoms: _49  and  _50
REMARK   25  A    between atoms: _50  and  _51
REMARK   26  A    between atoms: _60  and  _62
REMARK   27  A    between atoms: _62  and  _63
REMARK   28  A    between atoms: _62  and  _65
REMARK   29  A    between atoms: _65  and  _66
REMARK   30  A    between atoms: _69  and  _71
REMARK   31  A    between atoms: _71  and  _72
REMARK   32  A    between atoms: _74  and  _76
REMARK   33  A    between atoms: _76  and  _77
REMARK   34  A    between atoms: _76  and  _79
REMARK   35  A    between atoms: _79  and  _80
REMARK   36  A    between atoms: _80  and  _81
REMARK   37  A    between atoms: _81  and  _82
REMARK   38  A    between atoms: _82  and  _83
REMARK   39  A    between atoms: _87  and  _89
REMARK   40  A    between atoms: _89  and  _90
REMARK   41  A    between atoms: _89  and  _92
REMARK   42  A    between atoms: _92  and  _93
REMARK   43  A    between atoms: _96  and  _98
REMARK   44  A    between atoms: _98  and  _99
REMARK   45  A    between atoms: _98  and  _101
REMARK   46  A    between atoms: _101  and  _102
REMARK   47  A    between atoms: _105  and  _107
REMARK   48  A    between atoms: _107  and  _108
REMARK   49  A    between atoms: _107  and  _110
REMARK   50  A    between atoms: _110  and  _111
REMARK   51  A    between atoms: _111  and  _112
REMARK   52  A    between atoms: _117  and  _119
REMARK   53  A    between atoms: _119  and  _120
REMARK   54  A    between atoms: _119  and  _122
REMARK   55  A    between atoms: _124  and  _126
REMARK   56  A    between atoms: _126  and  _127
REMARK   57  A    between atoms: _126  and  _129
REMARK   58  A    between atoms: _129  and  _130
REMARK   59  A    between atoms: _135  and  _137
REMARK   60  A    between atoms: _137  and  _138
REMARK   61  A    between atoms: _137  and  _140
REMARK   62  A    between atoms: _140  and  _141
REMARK   63  A    between atoms: _144  and  _146
REMARK   64  A    between atoms: _146  and  _147
REMARK   65  A    between atoms: _146  and  _149
REMARK   66  A    between atoms: _149  and  _150
REMARK   67  A    between atoms: _150  and  _151
REMARK   68  A    between atoms: _151  and  _152
REMARK   69  A    between atoms: _152  and  _153
REMARK   70  A    between atoms: _157  and  _159
REMARK   71  A    between atoms: _159  and  _160
REMARK   72  A    between atoms: _159  and  _162
REMARK   73  A    between atoms: _162  and  _163
REMARK   74  A    between atoms: _170  and  _171
REMARK   75  A    between atoms: _176  and  _178
REMARK   76  A    between atoms: _178  and  _179
REMARK   77  A    between atoms: _178  and  _181
REMARK   78  A    between atoms: _181  and  _182
REMARK   79  A    between atoms: _182  and  _183
REMARK   80  A    between atoms: _186  and  _188
REMARK   81  A    between atoms: _188  and  _189
REMARK   82  A    between atoms: _188  and  _191
REMARK   83  A    between atoms: _191  and  _192
REMARK   84  A    between atoms: _192  and  _193
REMARK   85  A    between atoms: _193  and  _194
REMARK   86  A    between atoms: _203  and  _205
REMARK   87  A    between atoms: _205  and  _206
REMARK   88  A    between atoms: _205  and  _208
REMARK   89  A    between atoms: _208  and  _209
REMARK   90  A    between atoms: _212  and  _214
REMARK   91  A    between atoms: _214  and  _215
REMARK   92  A    between atoms: _214  and  _217
REMARK   93  A    between atoms: _217  and  _218
REMARK   94  A    between atoms: _223  and  _225
REMARK   95  A    between atoms: _225  and  _226
REMARK   96  A    between atoms: _225  and  _228
REMARK   97  A    between atoms: _228  and  _229
REMARK   98  A    between atoms: _234  and  _235
REMARK   99  A    between atoms: _237  and  _239
REMARK  100  A    between atoms: _239  and  _240
REMARK  101  A    between atoms: _239  and  _242
REMARK  102  A    between atoms: _242  and  _243
REMARK  103  A    between atoms: _246  and  _248
REMARK  104  A    between atoms: _248  and  _249
REMARK  105  A    between atoms: _248  and  _251
REMARK  106  A    between atoms: _251  and  _252
REMARK  107  A    between atoms: _255  and  _257
REMARK  108  A    between atoms: _257  and  _258
REMARK  109  A    between atoms: _257  and  _260
REMARK  110  A    between atoms: _260  and  _261
REMARK  111  A    between atoms: _264  and  _266
REMARK  112  A    between atoms: _266  and  _267
REMARK  113  A    between atoms: _266  and  _269
REMARK  114  A    between atoms: _269  and  _270
REMARK  115  A    between atoms: _275  and  _277
REMARK  116  A    between atoms: _277  and  _278
REMARK  117  A    between atoms: _277  and  _280
REMARK  118  A    between atoms: _280  and  _281
REMARK  119  A    between atoms: _284  and  _286
REMARK  120  A    between atoms: _286  and  _287
REMARK  121  A    between atoms: _286  and  _289
REMARK  122  A    between atoms: _289  and  _290
REMARK  123  A    between atoms: _296  and  _298
REMARK  124  A    between atoms: _298  and  _299
REMARK  125  A    between atoms: _298  and  _301
REMARK  126  A    between atoms: _301  and  _302
REMARK  127  A    between atoms: _304  and  _306
REMARK  128  A    between atoms: _306  and  _307
REMARK  129  A    between atoms: _310  and  _312
REMARK  130  A    between atoms: _312  and  _313
REMARK  131  A    between atoms: _312  and  _315
REMARK  132  A    between atoms: _315  and  _316
REMARK  133  A    between atoms: _321  and  _323
REMARK  134  A    between atoms: _323  and  _324
REMARK  135  A    between atoms: _323  and  _326
REMARK  136  A    between atoms: _326  and  _327
REMARK  137  A    between atoms: _327  and  _328
REMARK  138  A    between atoms: _328  and  _329
REMARK  139  A    between atoms: _338  and  _340
REMARK  140  A    between atoms: _340  and  _341
REMARK  141  A    between atoms: _340  and  _343
REMARK  142  A    between atoms: _343  and  _344
REMARK  143  A    between atoms: _347  and  _349
REMARK  144  A    between atoms: _349  and  _350
REMARK  145  A    between atoms: _349  and  _352
REMARK  146  A    between atoms: _352  and  _353
REMARK  147  A    between atoms: _353  and  _354
REMARK  148  A    between atoms: _354  and  _355
REMARK  149  A    between atoms: _364  and  _366
REMARK  150  A    between atoms: _366  and  _367
REMARK  151  A    between atoms: _366  and  _369
REMARK  152  A    between atoms: _369  and  _370
REMARK  153  A    between atoms: _375  and  _376
REMARK  154  A    between atoms: _378  and  _380
REMARK  155  A    between atoms: _380  and  _381
REMARK  156  A    between atoms: _380  and  _383
REMARK  157  A    between atoms: _386  and  _388
REMARK  158  A    between atoms: _388  and  _389
REMARK  159  A    between atoms: _388  and  _391
REMARK  160  A    between atoms: _391  and  _392
REMARK  161  A    between atoms: _397  and  _398
REMARK  162  A    between atoms: _400  and  _402
REMARK  163  A    between atoms: _402  and  _403
REMARK  164  A    between atoms: _402  and  _405
REMARK  165  A    between atoms: _405  and  _406
REMARK  166  A    between atoms: _408  and  _410
REMARK  167  A    between atoms: _410  and  _411
REMARK  168  A    between atoms: _413  and  _415
REMARK  169  A    between atoms: _415  and  _416
REMARK  170  A    between atoms: _415  and  _418
REMARK  171  A    between atoms: _421  and  _423
REMARK  172  A    between atoms: _423  and  _424
REMARK  173  A    between atoms: _427  and  _429
REMARK  174  A    between atoms: _429  and  _430
REMARK  175  A    between atoms: _429  and  _432
REMARK  176  A    between atoms: _432  and  _433
REMARK  177  A    between atoms: _438  and  _439
REMARK  178  A    between atoms: _441  and  _443
REMARK  179  A    between atoms: _443  and  _444
REMARK  180  A    between atoms: _443  and  _446
REMARK  181  A    between atoms: _446  and  _447
REMARK  182  A    between atoms: _449  and  _451
REMARK  183  A    between atoms: _451  and  _452
REMARK  184  A    between atoms: _455  and  _457
REMARK  185  A    between atoms: _457  and  _458
REMARK  186  A    between atoms: _461  and  _463
REMARK  187  A    between atoms: _463  and  _464
REMARK  188  A    between atoms: _463  and  _466
REMARK  189  A    between atoms: _466  and  _467
REMARK  190  A    between atoms: _467  and  _468
REMARK  191  A    between atoms: _468  and  _469
REMARK  192  A    between atoms: _469  and  _470
REMARK  193  A    between atoms: _474  and  _476
REMARK  194  A    between atoms: _476  and  _477
REMARK  195  A    between atoms: _476  and  _479
REMARK  196  A    between atoms: _479  and  _480
REMARK  197  A    between atoms: _483  and  _485
REMARK  198  A    between atoms: _485  and  _486
REMARK  199  A    between atoms: _485  and  _488
REMARK  200  A    between atoms: _488  and  _489
REMARK  201  A    between atoms: _492  and  _494
REMARK  202  A    between atoms: _494  and  _495
REMARK  203  A    between atoms: _494  and  _497
REMARK  204  A    between atoms: _497  and  _498
REMARK  205  A    between atoms: _501  and  _503
REMARK  206  A    between atoms: _503  and  _504
REMARK  207  A    between atoms: _503  and  _506
REMARK  208  A    between atoms: _506  and  _507
REMARK  209  A    between atoms: _512  and  _514
REMARK  210  A    between atoms: _514  and  _515
REMARK  211  A    between atoms: _514  and  _517
REMARK  212  A    between atoms: _517  and  _518
REMARK  213  A    between atoms: _523  and  _525
REMARK  214  A    between atoms: _525  and  _526
REMARK  215  A    between atoms: _529  and  _531
REMARK  216  A    between atoms: _531  and  _532
REMARK  217  A    between atoms: _531  and  _534
REMARK  218  A    between atoms: _534  and  _535
REMARK  219  A    between atoms: _535  and  _536
REMARK  220  A    between atoms: _539  and  _541
REMARK  221  A    between atoms: _541  and  _542
REMARK  222  A    between atoms: _541  and  _544
REMARK  223  A    between atoms: _544  and  _545
REMARK  224  A    between atoms: _545  and  _546
REMARK  225  A    between atoms: _546  and  _547
REMARK  226  A    between atoms: _547  and  _548
REMARK  227  A    between atoms: _552  and  _554
REMARK  228  A    between atoms: _554  and  _555
REMARK  229  A    between atoms: _554  and  _557
REMARK  230  A    between atoms: _557  and  _558
REMARK  231  A    between atoms: _560  and  _562
REMARK  232  A    between atoms: _562  and  _563
REMARK  233  A    between atoms: _565  and  _567
REMARK  234  A    between atoms: _567  and  _568
REMARK  235  A    between atoms: _567  and  _570
REMARK  236  A    between atoms: _570  and  _571
REMARK  237  A    between atoms: _574  and  _576
REMARK  238  A    between atoms: _576  and  _577
REMARK  239  A    between atoms: _576  and  _579
REMARK  240  A    between atoms: _579  and  _580
REMARK  241  A    between atoms: _580  and  _581
REMARK  242  A    between atoms: _584  and  _586
REMARK  243  A    between atoms: _586  and  _587
REMARK  244  A    between atoms: _586  and  _589
REMARK  245  A    between atoms: _589  and  _590
REMARK  246  A    between atoms: _590  and  _591
REMARK  247  A    between atoms: _591  and  _592
REMARK  248  A    between atoms: _601  and  _603
REMARK  249  A    between atoms: _603  and  _604
REMARK  250  A    between atoms: _603  and  _606
REMARK  251  A    between atoms: _606  and  _607
REMARK  252  A    between atoms: _612  and  _613
REMARK  253  A    between atoms: _615  and  _617
REMARK  254  A    between atoms: _617  and  _618
REMARK  255  A    between atoms: _617  and  _620
REMARK  256  A    between atoms: _620  and  _621
REMARK  257  A    between atoms: _621  and  _622
REMARK  258  A    between atoms: _625  and  _627
REMARK  259  A    between atoms: _627  and  _628
REMARK  260  A    between atoms: _627  and  _630
REMARK  261  A    between atoms: _630  and  _631
REMARK  262  A    between atoms: _634  and  _636
REMARK  263  A    between atoms: _636  and  _637
REMARK  264  A    between atoms: _636  and  _639
REMARK  265  A    between atoms: _639  and  _640
REMARK  266  A    between atoms: _646  and  _648
REMARK  267  A    between atoms: _648  and  _649
REMARK  268  A    between atoms: _648  and  _651
REMARK  269  A    between atoms: _651  and  _652
REMARK  270  A    between atoms: _652  and  _653
REMARK  271  A    between atoms: _658  and  _660
REMARK  272  A    between atoms: _660  and  _661
REMARK  273  A    between atoms: _660  and  _663
REMARK  274  A    between atoms: _666  and  _668
REMARK  275  A    between atoms: _668  and  _669
REMARK  276  A    between atoms: _668  and  _671
REMARK  277  A    between atoms: _671  and  _672
REMARK  278  A    between atoms: _678  and  _680
REMARK  279  A    between atoms: _680  and  _681
REMARK  280  A    between atoms: _680  and  _683
REMARK  281  A    between atoms: _686  and  _688
REMARK  282  A    between atoms: _688  and  _689
REMARK  283  A    between atoms: _688  and  _691
REMARK  284  A    between atoms: _691  and  _692
REMARK  285  A    between atoms: _695  and  _697
REMARK  286  A    between atoms: _697  and  _698
REMARK  287  A    between atoms: _697  and  _700
REMARK  288  A    between atoms: _700  and  _701
REMARK  289  A    between atoms: _706  and  _708
REMARK  290  A    between atoms: _708  and  _709
REMARK  291  A    between atoms: _708  and  _711
REMARK  292  A    between atoms: _711  and  _712
REMARK  293  A    between atoms: _712  and  _713
REMARK  294  A    between atoms: _713  and  _714
REMARK  295  A    between atoms: _714  and  _715
REMARK  296  A    between atoms: _719  and  _721
REMARK  297  A    between atoms: _721  and  _722
REMARK  298  A    between atoms: _724  and  _726
REMARK  299  A    between atoms: _726  and  _727
REMARK  300  A    between atoms: _726  and  _729
REMARK  301  A    between atoms: _729  and  _730
REMARK  302  A    between atoms: _733  and  _735
REMARK  303  A    between atoms: _735  and  _736
REMARK  304  A    between atoms: _735  and  _738
REMARK  305  A    between atoms: _738  and  _739
REMARK  306  A    between atoms: _739  and  _740
REMARK  307  A    between atoms: _745  and  _747
REMARK  308  A    between atoms: _747  and  _748
REMARK  309  A    between atoms: _747  and  _750
REMARK  310  A    between atoms: _750  and  _751
REMARK  311  A    between atoms: _751  and  _752
REMARK  312  A    between atoms: _755  and  _757
REMARK  313  A    between atoms: _757  and  _758
REMARK  314  A    between atoms: _757  and  _760
REMARK  315  A    between atoms: _763  and  _765
REMARK  316  A    between atoms: _765  and  _766
REMARK  317  A    between atoms: _765  and  _768
REMARK  318  A    between atoms: _768  and  _769
REMARK  319  A    between atoms: _769  and  _770
REMARK                            x       y       z     vdW  Elec       q    Type
REMARK                         _______ _______ _______ _____ _____    ______ ____
ROOT
ATOM      1  O   HOH     1       8.556   0.252 134.683  0.00  0.00    +0.000 OA
ENDROOT
TORSDOF 0
REMARK  Name = ../refined-set-2016/3tmk/3tmk_pocket.pdb
REMARK  319 active torsions:
REMARK  status: ('A' for Active; 'I' for Inactive)
REMARK    1  A    between atoms: _1  and  _3
REMARK    2  A    between atoms: _3  and  _4
REMARK    3  A    between atoms: _3  and  _6
REMARK    4  A    between atoms: _6  and  _7
REMARK    5  A    between atoms: _10  and  _12
REMARK    6  A    between atoms: _12  and  _13
REMARK    7  A    between atoms: _12  and  _15
REMARK    8  A    between atoms: _15  and  _16
REMARK    9  A    between atoms: _16  and  _17
REMARK   10  A    between atoms: _20  and  _22
REMARK   11  A    between atoms: _22  and  _23
REMARK   12  A    between atoms: _25  and  _27
REMARK   13  A    between atoms: _27  and  _28
REMARK   14  A    between atoms: _27  and  _30
REMARK   15  A    between atoms: _30  and  _31
REMARK   16  A    between atoms: _34  and  _36
REMARK   17  A    between atoms: _36  and  _37
REMARK   18  A    between atoms: _36  and  _39
REMARK   19  A    between atoms: _39  and  _40
REMARK   20  A    between atoms: _43  and  _45
REMARK   21  A    between atoms: _45  and  _46
REMARK   22  A    between atoms: _45  and  _48
REMARK   23  A    between atoms: _48  and  _49
REMARK   24  A    between atoms: _49  and  _50
REMARK   25  A    between atoms: _50  and  _51
REMARK   26  A    between atoms: _60  and  _62
REMARK   27  A    between atoms: _62  and  _63
REMARK   28  A    between atoms: _62  and  _65
REMARK   29  A    between atoms: _65  and  _66
REMARK   30  A    between atoms: _69  and  _71
REMARK   31  A    between atoms: _71  and  _72
REMARK   32  A    between atoms: _74  and  _76
REMARK   33  A    between atoms: _76  and  _77
REMARK   34  A    between atoms: _76  and  _79
REMARK   35  A    between atoms: _79  and  _80
REMARK   36  A    between atoms: _80  and  _81
REMARK   37  A    between atoms: _81  and  _82
REMARK   38  A    between atoms: _82  and  _83
REMARK   39  A    between atoms: _87  and  _89
REMARK   40  A    between atoms: _89  and  _90
REMARK   41  A    between atoms: _89  and  _92
REMARK   42  A    between atoms: _92  and  _93
REMARK   43  A    between atoms: _96  and  _98
REMARK   44  A    between atoms: _98  and  _99
REMARK   45  A    between atoms: _98  and  _101
REMARK   46  A    between atoms: _101  and  _102
REMARK   47  A    between atoms: _105  and  _107
REMARK   48  A    between atoms: _107  and  _108
REMARK   49  A    between atoms: _107  and  _110
REMARK   50  A    between atoms: _110  and  _111
REMARK   51  A    between atoms: _111  and  _112
REMARK   52  A    between atoms: _117  and  _119
REMARK   53  A    between atoms: _119  and  _120
REMARK   54  A    between atoms: _119  and  _122
REMARK   55  A    between atoms: _124  and  _126
REMARK   56  A    between atoms: _126  and  _127
REMARK   57  A    between atoms: _126  and  _129
REMARK   58  A    between atoms: _129  and  _130
REMARK   59  A    between atoms: _135  and  _137
REMARK   60  A    between atoms: _137  and  _138
REMARK   61  A    between atoms: _137  and  _140
REMARK   62  A    between atoms: _140  and  _141
REMARK   63  A    between atoms: _144  and  _146
REMARK   64  A    between atoms: _146  and  _147
REMARK   65  A    between atoms: _146  and  _149
REMARK   66  A    between atoms: _149  and  _150
REMARK   67  A    between atoms: _150  and  _151
REMARK   68  A    between atoms: _151  and  _152
REMARK   69  A    between atoms: _152  and  _153
REMARK   70  A    between atoms: _157  and  _159
REMARK   71  A    between atoms: _159  and  _160
REMARK   72  A    between atoms: _159  and  _162
REMARK   73  A    between atoms: _162  and  _163
REMARK   74  A    between atoms: _170  and  _171
REMARK   75  A    between atoms: _176  and  _178
REMARK   76  A    between atoms: _178  and  _179
REMARK   77  A    between atoms: _178  and  _181
REMARK   78  A    between atoms: _181  and  _182
REMARK   79  A    between atoms: _182  and  _183
REMARK   80  A    between atoms: _186  and  _188
REMARK   81  A    between atoms: _188  and  _189
REMARK   82  A    between atoms: _188  and  _191
REMARK   83  A    between atoms: _191  and  _192
REMARK   84  A    between atoms: _192  and  _193
REMARK   85  A    between atoms: _193  and  _194
REMARK   86  A    between atoms: _203  and  _205
REMARK   87  A    between atoms: _205  and  _206
REMARK   88  A    between atoms: _205  and  _208
REMARK   89  A    between atoms: _208  and  _209
REMARK   90  A    between atoms: _212  and  _214
REMARK   91  A    between atoms: _214  and  _215
REMARK   92  A    between atoms: _214  and  _217
REMARK   93  A    between atoms: _217  and  _218
REMARK   94  A    between atoms: _223  and  _225
REMARK   95  A    between atoms: _225  and  _226
REMARK   96  A    between atoms: _225  and  _228
REMARK   97  A    between atoms: _228  and  _229
REMARK   98  A    between atoms: _234  and  _235
REMARK   99  A    between atoms: _237  and  _239
REMARK  100  A    between atoms: _239  and  _240
REMARK  101  A    between atoms: _239  and  _242
REMARK  102  A    between atoms: _242  and  _243
REMARK  103  A    between atoms: _246  and  _248
REMARK  104  A    between atoms: _248  and  _249
REMARK  105  A    between atoms: _248  and  _251
REMARK  106  A    between atoms: _251  and  _252
REMARK  107  A    between atoms: _255  and  _257
REMARK  108  A    between atoms: _257  and  _258
REMARK  109  A    between atoms: _257  and  _260
REMARK  110  A    between atoms: _260  and  _261
REMARK  111  A    between atoms: _264  and  _266
REMARK  112  A    between atoms: _266  and  _267
REMARK  113  A    between atoms: _266  and  _269
REMARK  114  A    between atoms: _269  and  _270
REMARK  115  A    between atoms: _275  and  _277
REMARK  116  A    between atoms: _277  and  _278
REMARK  117  A    between atoms: _277  and  _280
REMARK  118  A    between atoms: _280  and  _281
REMARK  119  A    between atoms: _284  and  _286
REMARK  120  A    between atoms: _286  and  _287
REMARK  121  A    between atoms: _286  and  _289
REMARK  122  A    between atoms: _289  and  _290
REMARK  123  A    between atoms: _296  and  _298
REMARK  124  A    between atoms: _298  and  _299
REMARK  125  A    between atoms: _298  and  _301
REMARK  126  A    between atoms: _301  and  _302
REMARK  127  A    between atoms: _304  and  _306
REMARK  128  A    between atoms: _306  and  _307
REMARK  129  A    between atoms: _310  and  _312
REMARK  130  A    between atoms: _312  and  _313
REMARK  131  A    between atoms: _312  and  _315
REMARK  132  A    between atoms: _315  and  _316
REMARK  133  A    between atoms: _321  and  _323
REMARK  134  A    between atoms: _323  and  _324
REMARK  135  A    between atoms: _323  and  _326
REMARK  136  A    between atoms: _326  and  _327
REMARK  137  A    between atoms: _327  and  _328
REMARK  138  A    between atoms: _328  and  _329
REMARK  139  A    between atoms: _338  and  _340
REMARK  140  A    between atoms: _340  and  _341
REMARK  141  A    between atoms: _340  and  _343
REMARK  142  A    between atoms: _343  and  _344
REMARK  143  A    between atoms: _347  and  _349
REMARK  144  A    between atoms: _349  and  _350
REMARK  145  A    between atoms: _349  and  _352
REMARK  146  A    between atoms: _352  and  _353
REMARK  147  A    between atoms: _353  and  _354
REMARK  148  A    between atoms: _354  and  _355
REMARK  149  A    between atoms: _364  and  _366
REMARK  150  A    between atoms: _366  and  _367
REMARK  151  A    between atoms: _366  and  _369
REMARK  152  A    between atoms: _369  and  _370
REMARK  153  A    between atoms: _375  and  _376
REMARK  154  A    between atoms: _378  and  _380
REMARK  155  A    between atoms: _380  and  _381
REMARK  156  A    between atoms: _380  and  _383
REMARK  157  A    between atoms: _386  and  _388
REMARK  158  A    between atoms: _388  and  _389
REMARK  159  A    between atoms: _388  and  _391
REMARK  160  A    between atoms: _391  and  _392
REMARK  161  A    between atoms: _397  and  _398
REMARK  162  A    between atoms: _400  and  _402
REMARK  163  A    between atoms: _402  and  _403
REMARK  164  A    between atoms: _402  and  _405
REMARK  165  A    between atoms: _405  and  _406
REMARK  166  A    between atoms: _408  and  _410
REMARK  167  A    between atoms: _410  and  _411
REMARK  168  A    between atoms: _413  and  _415
REMARK  169  A    between atoms: _415  and  _416
REMARK  170  A    between atoms: _415  and  _418
REMARK  171  A    between atoms: _421  and  _423
REMARK  172  A    between atoms: _423  and  _424
REMARK  173  A    between atoms: _427  and  _429
REMARK  174  A    between atoms: _429  and  _430
REMARK  175  A    between atoms: _429  and  _432
REMARK  176  A    between atoms: _432  and  _433
REMARK  177  A    between atoms: _438  and  _439
REMARK  178  A    between atoms: _441  and  _443
REMARK  179  A    between atoms: _443  and  _444
REMARK  180  A    between atoms: _443  and  _446
REMARK  181  A    between atoms: _446  and  _447
REMARK  182  A    between atoms: _449  and  _451
REMARK  183  A    between atoms: _451  and  _452
REMARK  184  A    between atoms: _455  and  _457
REMARK  185  A    between atoms: _457  and  _458
REMARK  186  A    between atoms: _461  and  _463
REMARK  187  A    between atoms: _463  and  _464
REMARK  188  A    between atoms: _463  and  _466
REMARK  189  A    between atoms: _466  and  _467
REMARK  190  A    between atoms: _467  and  _468
REMARK  191  A    between atoms: _468  and  _469
REMARK  192  A    between atoms: _469  and  _470
REMARK  193  A    between atoms: _474  and  _476
REMARK  194  A    between atoms: _476  and  _477
REMARK  195  A    between atoms: _476  and  _479
REMARK  196  A    between atoms: _479  and  _480
REMARK  197  A    between atoms: _483  and  _485
REMARK  198  A    between atoms: _485  and  _486
REMARK  199  A    between atoms: _485  and  _488
REMARK  200  A    between atoms: _488  and  _489
REMARK  201  A    between atoms: _492  and  _494
REMARK  202  A    between atoms: _494  and  _495
REMARK  203  A    between atoms: _494  and  _497
REMARK  204  A    between atoms: _497  and  _498
REMARK  205  A    between atoms: _501  and  _503
REMARK  206  A    between atoms: _503  and  _504
REMARK  207  A    between atoms: _503  and  _506
REMARK  208  A    between atoms: _506  and  _507
REMARK  209  A    between atoms: _512  and  _514
REMARK  210  A    between atoms: _514  and  _515
REMARK  211  A    between atoms: _514  and  _517
REMARK  212  A    between atoms: _517  and  _518
REMARK  213  A    between atoms: _523  and  _525
REMARK  214  A    between atoms: _525  and  _526
REMARK  215  A    between atoms: _529  and  _531
REMARK  216  A    between atoms: _531  and  _532
REMARK  217  A    between atoms: _531  and  _534
REMARK  218  A    between atoms: _534  and  _535
REMARK  219  A    between atoms: _535  and  _536
REMARK  220  A    between atoms: _539  and  _541
REMARK  221  A    between atoms: _541  and  _542
REMARK  222  A    between atoms: _541  and  _544
REMARK  223  A    between atoms: _544  and  _545
REMARK  224  A    between atoms: _545  and  _546
REMARK  225  A    between atoms: _546  and  _547
REMARK  226  A    between atoms: _547  and  _548
REMARK  227  A    between atoms: _552  and  _554
REMARK  228  A    between atoms: _554  and  _555
REMARK  229  A    between atoms: _554  and  _557
REMARK  230  A    between atoms: _557  and  _558
REMARK  231  A    between atoms: _560  and  _562
REMARK  232  A    between atoms: _562  and  _563
REMARK  233  A    between atoms: _565  and  _567
REMARK  234  A    between atoms: _567  and  _568
REMARK  235  A    between atoms: _567  and  _570
REMARK  236  A    between atoms: _570  and  _571
REMARK  237  A    between atoms: _574  and  _576
REMARK  238  A    between atoms: _576  and  _577
REMARK  239  A    between atoms: _576  and  _579
REMARK  240  A    between atoms: _579  and  _580
REMARK  241  A    between atoms: _580  and  _581
REMARK  242  A    between atoms: _584  and  _586
REMARK  243  A    between atoms: _586  and  _587
REMARK  244  A    between atoms: _586  and  _589
REMARK  245  A    between atoms: _589  and  _590
REMARK  246  A    between atoms: _590  and  _591
REMARK  247  A    between atoms: _591  and  _592
REMARK  248  A    between atoms: _601  and  _603
REMARK  249  A    between atoms: _603  and  _604
REMARK  250  A    between atoms: _603  and  _606
REMARK  251  A    between atoms: _606  and  _607
REMARK  252  A    between atoms: _612  and  _613
REMARK  253  A    between atoms: _615  and  _617
REMARK  254  A    between atoms: _617  and  _618
REMARK  255  A    between atoms: _617  and  _620
REMARK  256  A    between atoms: _620  and  _621
REMARK  257  A    between atoms: _621  and  _622
REMARK  258  A    between atoms: _625  and  _627
REMARK  259  A    between atoms: _627  and  _628
REMARK  260  A    between atoms: _627  and  _630
REMARK  261  A    between atoms: _630  and  _631
REMARK  262  A    between atoms: _634  and  _636
REMARK  263  A    between atoms: _636  and  _637
REMARK  264  A    between atoms: _636  and  _639
REMARK  265  A    between atoms: _639  and  _640
REMARK  266  A    between atoms: _646  and  _648
REMARK  267  A    between atoms: _648  and  _649
REMARK  268  A    between atoms: _648  and  _651
REMARK  269  A    between atoms: _651  and  _652
REMARK  270  A    between atoms: _652  and  _653
REMARK  271  A    between atoms: _658  and  _660
REMARK  272  A    between atoms: _660  and  _661
REMARK  273  A    between atoms: _660  and  _663
REMARK  274  A    between atoms: _666  and  _668
REMARK  275  A    between atoms: _668  and  _669
REMARK  276  A    between atoms: _668  and  _671
REMARK  277  A    between atoms: _671  and  _672
REMARK  278  A    between atoms: _678  and  _680
REMARK  279  A    between atoms: _680  and  _681
REMARK  280  A    between atoms: _680  and  _683
REMARK  281  A    between atoms: _686  and  _688
REMARK  282  A    between atoms: _688  and  _689
REMARK  283  A    between atoms: _688  and  _691
REMARK  284  A    between atoms: _691  and  _692
REMARK  285  A    between atoms: _695  and  _697
REMARK  286  A    between atoms: _697  and  _698
REMARK  287  A    between atoms: _697  and  _700
REMARK  288  A    between atoms: _700  and  _701
REMARK  289  A    between atoms: _706  and  _708
REMARK  290  A    between atoms: _708  and  _709
REMARK  291  A    between atoms: _708  and  _711
REMARK  292  A    between atoms: _711  and  _712
REMARK  293  A    between atoms: _712  and  _713
REMARK  294  A    between atoms: _713  and  _714
REMARK  295  A    between atoms: _714  and  _715
REMARK  296  A    between atoms: _719  and  _721
REMARK  297  A    between atoms: _721  and  _722
REMARK  298  A    between atoms: _724  and  _726
REMARK  299  A    between atoms: _726  and  _727
REMARK  300  A    between atoms: _726  and  _729
REMARK  301  A    between atoms: _729  and  _730
REMARK  302  A    between atoms: _733  and  _735
REMARK  303  A    between atoms: _735  and  _736
REMARK  304  A    between atoms: _735  and  _738
REMARK  305  A    between atoms: _738  and  _739
REMARK  306  A    between atoms: _739  and  _740
REMARK  307  A    between atoms: _745  and  _747
REMARK  308  A    between atoms: _747  and  _748
REMARK  309  A    between atoms: _747  and  _750
REMARK  310  A    between atoms: _750  and  _751
REMARK  311  A    between atoms: _751  and  _752
REMARK  312  A    between atoms: _755  and  _757
REMARK  313  A    between atoms: _757  and  _758
REMARK  314  A    between atoms: _757  and  _760
REMARK  315  A    between atoms: _763  and  _765
REMARK  316  A    between atoms: _765  and  _766
REMARK  317  A    between atoms: _765  and  _768
REMARK  318  A    between atoms: _768  and  _769
REMARK  319  A    between atoms: _769  and  _770
REMARK                            x       y       z     vdW  Elec       q    Type
REMARK                         _______ _______ _______ _____ _____    ______ ____
ROOT
ATOM      1  O   HOH     1      -2.612   4.744 144.755  0.00  0.00    +0.000 OA
ENDROOT
TORSDOF 0
REMARK  Name = ../refined-set-2016/3tmk/3tmk_pocket.pdb
REMARK  319 active torsions:
REMARK  status: ('A' for Active; 'I' for Inactive)
REMARK    1  A    between atoms: _1  and  _3
REMARK    2  A    between atoms: _3  and  _4
REMARK    3  A    between atoms: _3  and  _6
REMARK    4  A    between atoms: _6  and  _7
REMARK    5  A    between atoms: _10  and  _12
REMARK    6  A    between atoms: _12  and  _13
REMARK    7  A    between atoms: _12  and  _15
REMARK    8  A    between atoms: _15  and  _16
REMARK    9  A    between atoms: _16  and  _17
REMARK   10  A    between atoms: _20  and  _22
REMARK   11  A    between atoms: _22  and  _23
REMARK   12  A    between atoms: _25  and  _27
REMARK   13  A    between atoms: _27  and  _28
REMARK   14  A    between atoms: _27  and  _30
REMARK   15  A    between atoms: _30  and  _31
REMARK   16  A    between atoms: _34  and  _36
REMARK   17  A    between atoms: _36  and  _37
REMARK   18  A    between atoms: _36  and  _39
REMARK   19  A    between atoms: _39  and  _40
REMARK   20  A    between atoms: _43  and  _45
REMARK   21  A    between atoms: _45  and  _46
REMARK   22  A    between atoms: _45  and  _48
REMARK   23  A    between atoms: _48  and  _49
REMARK   24  A    between atoms: _49  and  _50
REMARK   25  A    between atoms: _50  and  _51
REMARK   26  A    between atoms: _60  and  _62
REMARK   27  A    between atoms: _62  and  _63
REMARK   28  A    between atoms: _62  and  _65
REMARK   29  A    between atoms: _65  and  _66
REMARK   30  A    between atoms: _69  and  _71
REMARK   31  A    between atoms: _71  and  _72
REMARK   32  A    between atoms: _74  and  _76
REMARK   33  A    between atoms: _76  and  _77
REMARK   34  A    between atoms: _76  and  _79
REMARK   35  A    between atoms: _79  and  _80
REMARK   36  A    between atoms: _80  and  _81
REMARK   37  A    between atoms: _81  and  _82
REMARK   38  A    between atoms: _82  and  _83
REMARK   39  A    between atoms: _87  and  _89
REMARK   40  A    between atoms: _89  and  _90
REMARK   41  A    between atoms: _89  and  _92
REMARK   42  A    between atoms: _92  and  _93
REMARK   43  A    between atoms: _96  and  _98
REMARK   44  A    between atoms: _98  and  _99
REMARK   45  A    between atoms: _98  and  _101
REMARK   46  A    between atoms: _101  and  _102
REMARK   47  A    between atoms: _105  and  _107
REMARK   48  A    between atoms: _107  and  _108
REMARK   49  A    between atoms: _107  and  _110
REMARK   50  A    between atoms: _110  and  _111
REMARK   51  A    between atoms: _111  and  _112
REMARK   52  A    between atoms: _117  and  _119
REMARK   53  A    between atoms: _119  and  _120
REMARK   54  A    between atoms: _119  and  _122
REMARK   55  A    between atoms: _124  and  _126
REMARK   56  A    between atoms: _126  and  _127
REMARK   57  A    between atoms: _126  and  _129
REMARK   58  A    between atoms: _129  and  _130
REMARK   59  A    between atoms: _135  and  _137
REMARK   60  A    between atoms: _137  and  _138
REMARK   61  A    between atoms: _137  and  _140
REMARK   62  A    between atoms: _140  and  _141
REMARK   63  A    between atoms: _144  and  _146
REMARK   64  A    between atoms: _146  and  _147
REMARK   65  A    between atoms: _146  and  _149
REMARK   66  A    between atoms: _149  and  _150
REMARK   67  A    between atoms: _150  and  _151
REMARK   68  A    between atoms: _151  and  _152
REMARK   69  A    between atoms: _152  and  _153
REMARK   70  A    between atoms: _157  and  _159
REMARK   71  A    between atoms: _159  and  _160
REMARK   72  A    between atoms: _159  and  _162
REMARK   73  A    between atoms: _162  and  _163
REMARK   74  A    between atoms: _170  and  _171
REMARK   75  A    between atoms: _176  and  _178
REMARK   76  A    between atoms: _178  and  _179
REMARK   77  A    between atoms: _178  and  _181
REMARK   78  A    between atoms: _181  and  _182
REMARK   79  A    between atoms: _182  and  _183
REMARK   80  A    between atoms: _186  and  _188
REMARK   81  A    between atoms: _188  and  _189
REMARK   82  A    between atoms: _188  and  _191
REMARK   83  A    between atoms: _191  and  _192
REMARK   84  A    between atoms: _192  and  _193
REMARK   85  A    between atoms: _193  and  _194
REMARK   86  A    between atoms: _203  and  _205
REMARK   87  A    between atoms: _205  and  _206
REMARK   88  A    between atoms: _205  and  _208
REMARK   89  A    between atoms: _208  and  _209
REMARK   90  A    between atoms: _212  and  _214
REMARK   91  A    between atoms: _214  and  _215
REMARK   92  A    between atoms: _214  and  _217
REMARK   93  A    between atoms: _217  and  _218
REMARK   94  A    between atoms: _223  and  _225
REMARK   95  A    between atoms: _225  and  _226
REMARK   96  A    between atoms: _225  and  _228
REMARK   97  A    between atoms: _228  and  _229
REMARK   98  A    between atoms: _234  and  _235
REMARK   99  A    between atoms: _237  and  _239
REMARK  100  A    between atoms: _239  and  _240
REMARK  101  A    between atoms: _239  and  _242
REMARK  102  A    between atoms: _242  and  _243
REMARK  103  A    between atoms: _246  and  _248
REMARK  104  A    between atoms: _248  and  _249
REMARK  105  A    between atoms: _248  and  _251
REMARK  106  A    between atoms: _251  and  _252
REMARK  107  A    between atoms: _255  and  _257
REMARK  108  A    between atoms: _257  and  _258
REMARK  109  A    between atoms: _257  and  _260
REMARK  110  A    between atoms: _260  and  _261
REMARK  111  A    between atoms: _264  and  _266
REMARK  112  A    between atoms: _266  and  _267
REMARK  113  A    between atoms: _266  and  _269
REMARK  114  A    between atoms: _269  and  _270
REMARK  115  A    between atoms: _275  and  _277
REMARK  116  A    between atoms: _277  and  _278
REMARK  117  A    between atoms: _277  and  _280
REMARK  118  A    between atoms: _280  and  _281
REMARK  119  A    between atoms: _284  and  _286
REMARK  120  A    between atoms: _286  and  _287
REMARK  121  A    between atoms: _286  and  _289
REMARK  122  A    between atoms: _289  and  _290
REMARK  123  A    between atoms: _296  and  _298
REMARK  124  A    between atoms: _298  and  _299
REMARK  125  A    between atoms: _298  and  _301
REMARK  126  A    between atoms: _301  and  _302
REMARK  127  A    between atoms: _304  and  _306
REMARK  128  A    between atoms: _306  and  _307
REMARK  129  A    between atoms: _310  and  _312
REMARK  130  A    between atoms: _312  and  _313
REMARK  131  A    between atoms: _312  and  _315
REMARK  132  A    between atoms: _315  and  _316
REMARK  133  A    between atoms: _321  and  _323
REMARK  134  A    between atoms: _323  and  _324
REMARK  135  A    between atoms: _323  and  _326
REMARK  136  A    between atoms: _326  and  _327
REMARK  137  A    between atoms: _327  and  _328
REMARK  138  A    between atoms: _328  and  _329
REMARK  139  A    between atoms: _338  and  _340
REMARK  140  A    between atoms: _340  and  _341
REMARK  141  A    between atoms: _340  and  _343
REMARK  142  A    between atoms: _343  and  _344
REMARK  143  A    between atoms: _347  and  _349
REMARK  144  A    between atoms: _349  and  _350
REMARK  145  A    between atoms: _349  and  _352
REMARK  146  A    between atoms: _352  and  _353
REMARK  147  A    between atoms: _353  and  _354
REMARK  148  A    between atoms: _354  and  _355
REMARK  149  A    between atoms: _364  and  _366
REMARK  150  A    between atoms: _366  and  _367
REMARK  151  A    between atoms: _366  and  _369
REMARK  152  A    between atoms: _369  and  _370
REMARK  153  A    between atoms: _375  and  _376
REMARK  154  A    between atoms: _378  and  _380
REMARK  155  A    between atoms: _380  and  _381
REMARK  156  A    between atoms: _380  and  _383
REMARK  157  A    between atoms: _386  and  _388
REMARK  158  A    between atoms: _388  and  _389
REMARK  159  A    between atoms: _388  and  _391
REMARK  160  A    between atoms: _391  and  _392
REMARK  161  A    between atoms: _397  and  _398
REMARK  162  A    between atoms: _400  and  _402
REMARK  163  A    between atoms: _402  and  _403
REMARK  164  A    between atoms: _402  and  _405
REMARK  165  A    between atoms: _405  and  _406
REMARK  166  A    between atoms: _408  and  _410
REMARK  167  A    between atoms: _410  and  _411
REMARK  168  A    between atoms: _413  and  _415
REMARK  169  A    between atoms: _415  and  _416
REMARK  170  A    between atoms: _415  and  _418
REMARK  171  A    between atoms: _421  and  _423
REMARK  172  A    between atoms: _423  and  _424
REMARK  173  A    between atoms: _427  and  _429
REMARK  174  A    between atoms: _429  and  _430
REMARK  175  A    between atoms: _429  and  _432
REMARK  176  A    between atoms: _432  and  _433
REMARK  177  A    between atoms: _438  and  _439
REMARK  178  A    between atoms: _441  and  _443
REMARK  179  A    between atoms: _443  and  _444
REMARK  180  A    between atoms: _443  and  _446
REMARK  181  A    between atoms: _446  and  _447
REMARK  182  A    between atoms: _449  and  _451
REMARK  183  A    between atoms: _451  and  _452
REMARK  184  A    between atoms: _455  and  _457
REMARK  185  A    between atoms: _457  and  _458
REMARK  186  A    between atoms: _461  and  _463
REMARK  187  A    between atoms: _463  and  _464
REMARK  188  A    between atoms: _463  and  _466
REMARK  189  A    between atoms: _466  and  _467
REMARK  190  A    between atoms: _467  and  _468
REMARK  191  A    between atoms: _468  and  _469
REMARK  192  A    between atoms: _469  and  _470
REMARK  193  A    between atoms: _474  and  _476
REMARK  194  A    between atoms: _476  and  _477
REMARK  195  A    between atoms: _476  and  _479
REMARK  196  A    between atoms: _479  and  _480
REMARK  197  A    between atoms: _483  and  _485
REMARK  198  A    between atoms: _485  and  _486
REMARK  199  A    between atoms: _485  and  _488
REMARK  200  A    between atoms: _488  and  _489
REMARK  201  A    between atoms: _492  and  _494
REMARK  202  A    between atoms: _494  and  _495
REMARK  203  A    between atoms: _494  and  _497
REMARK  204  A    between atoms: _497  and  _498
REMARK  205  A    between atoms: _501  and  _503
REMARK  206  A    between atoms: _503  and  _504
REMARK  207  A    between atoms: _503  and  _506
REMARK  208  A    between atoms: _506  and  _507
REMARK  209  A    between atoms: _512  and  _514
REMARK  210  A    between atoms: _514  and  _515
REMARK  211  A    between atoms: _514  and  _517
REMARK  212  A    between atoms: _517  and  _518
REMARK  213  A    between atoms: _523  and  _525
REMARK  214  A    between atoms: _525  and  _526
REMARK  215  A    between atoms: _529  and  _531
REMARK  216  A    between atoms: _531  and  _532
REMARK  217  A    between atoms: _531  and  _534
REMARK  218  A    between atoms: _534  and  _535
REMARK  219  A    between atoms: _535  and  _536
REMARK  220  A    between atoms: _539  and  _541
REMARK  221  A    between atoms: _541  and  _542
REMARK  222  A    between atoms: _541  and  _544
REMARK  223  A    between atoms: _544  and  _545
REMARK  224  A    between atoms: _545  and  _546
REMARK  225  A    between atoms: _546  and  _547
REMARK  226  A    between atoms: _547  and  _548
REMARK  227  A    between atoms: _552  and  _554
REMARK  228  A    between atoms: _554  and  _555
REMARK  229  A    between atoms: _554  and  _557
REMARK  230  A    between atoms: _557  and  _558
REMARK  231  A    between atoms: _560  and  _562
REMARK  232  A    between atoms: _562  and  _563
REMARK  233  A    between atoms: _565  and  _567
REMARK  234  A    between atoms: _567  and  _568
REMARK  235  A    between atoms: _567  and  _570
REMARK  236  A    between atoms: _570  and  _571
REMARK  237  A    between atoms: _574  and  _576
REMARK  238  A    between atoms: _576  and  _577
REMARK  239  A    between atoms: _576  and  _579
REMARK  240  A    between atoms: _579  and  _580
REMARK  241  A    between atoms: _580  and  _581
REMARK  242  A    between atoms: _584  and  _586
REMARK  243  A    between atoms: _586  and  _587
REMARK  244  A    between atoms: _586  and  _589
REMARK  245  A    between atoms: _589  and  _590
REMARK  246  A    between atoms: _590  and  _591
REMARK  247  A    between atoms: _591  and  _592
REMARK  248  A    between atoms: _601  and  _603
REMARK  249  A    between atoms: _603  and  _604
REMARK  250  A    between atoms: _603  and  _606
REMARK  251  A    between atoms: _606  and  _607
REMARK  252  A    between atoms: _612  and  _613
REMARK  253  A    between atoms: _615  and  _617
REMARK  254  A    between atoms: _617  and  _618
REMARK  255  A    between atoms: _617  and  _620
REMARK  256  A    between atoms: _620  and  _621
REMARK  257  A    between atoms: _621  and  _622
REMARK  258  A    between atoms: _625  and  _627
REMARK  259  A    between atoms: _627  and  _628
REMARK  260  A    between atoms: _627  and  _630
REMARK  261  A    between atoms: _630  and  _631
REMARK  262  A    between atoms: _634  and  _636
REMARK  263  A    between atoms: _636  and  _637
REMARK  264  A    between atoms: _636  and  _639
REMARK  265  A    between atoms: _639  and  _640
REMARK  266  A    between atoms: _646  and  _648
REMARK  267  A    between atoms: _648  and  _649
REMARK  268  A    between atoms: _648  and  _651
REMARK  269  A    between atoms: _651  and  _652
REMARK  270  A    between atoms: _652  and  _653
REMARK  271  A    between atoms: _658  and  _660
REMARK  272  A    between atoms: _660  and  _661
REMARK  273  A    between atoms: _660  and  _663
REMARK  274  A    between atoms: _666  and  _668
REMARK  275  A    between atoms: _668  and  _669
REMARK  276  A    between atoms: _668  and  _671
REMARK  277  A    between atoms: _671  and  _672
REMARK  278  A    between atoms: _678  and  _680
REMARK  279  A    between atoms: _680  and  _681
REMARK  280  A    between atoms: _680  and  _683
REMARK  281  A    between atoms: _686  and  _688
REMARK  282  A    between atoms: _688  and  _689
REMARK  283  A    between atoms: _688  and  _691
REMARK  284  A    between atoms: _691  and  _692
REMARK  285  A    between atoms: _695  and  _697
REMARK  286  A    between atoms: _697  and  _698
REMARK  287  A    between atoms: _697  and  _700
REMARK  288  A    between atoms: _700  and  _701
REMARK  289  A    between atoms: _706  and  _708
REMARK  290  A    between atoms: _708  and  _709
REMARK  291  A    between atoms: _708  and  _711
REMARK  292  A    between atoms: _711  and  _712
REMARK  293  A    between atoms: _712  and  _713
REMARK  294  A    between atoms: _713  and  _714
REMARK  295  A    between atoms: _714  and  _715
REMARK  296  A    between atoms: _719  and  _721
REMARK  297  A    between atoms: _721  and  _722
REMARK  298  A    between atoms: _724  and  _726
REMARK  299  A    between atoms: _726  and  _727
REMARK  300  A    between atoms: _726  and  _729
REMARK  301  A    between atoms: _729  and  _730
REMARK  302  A    between atoms: _733  and  _735
REMARK  303  A    between atoms: _735  and  _736
REMARK  304  A    between atoms: _735  and  _738
REMARK  305  A    between atoms: _738  and  _739
REMARK  306  A    between atoms: _739  and  _740
REMARK  307  A    between atoms: _745  and  _747
REMARK  308  A    between atoms: _747  and  _748
REMARK  309  A    between atoms: _747  and  _750
REMARK  310  A    between atoms: _750  and  _751
REMARK  311  A    between atoms: _751  and  _752
REMARK  312  A    between atoms: _755  and  _757
REMARK  313  A    between atoms: _757  and  _758
REMARK  314  A    between atoms: _757  and  _760
REMARK  315  A    between atoms: _763  and  _765
REMARK  316  A    between atoms: _765  and  _766
REMARK  317  A    between atoms: _765  and  _768
REMARK  318  A    between atoms: _768  and  _769
REMARK  319  A    between atoms: _769  and  _770
REMARK                            x       y       z     vdW  Elec       q    Type
REMARK                         _______ _______ _______ _____ _____    ______ ____
ROOT
ATOM      1  O   HOH     1       0.159  -3.216 163.870  0.00  0.00    +0.000 OA
ENDROOT
TORSDOF 0
REMARK  Name = ../refined-set-2016/3tmk/3tmk_pocket.pdb
REMARK  319 active torsions:
REMARK  status: ('A' for Active; 'I' for Inactive)
REMARK    1  A    between atoms: _1  and  _3
REMARK    2  A    between atoms: _3  and  _4
REMARK    3  A    between atoms: _3  and  _6
REMARK    4  A    between atoms: _6  and  _7
REMARK    5  A    between atoms: _10  and  _12
REMARK    6  A    between atoms: _12  and  _13
REMARK    7  A    between atoms: _12  and  _15
REMARK    8  A    between atoms: _15  and  _16
REMARK    9  A    between atoms: _16  and  _17
REMARK   10  A    between atoms: _20  and  _22
REMARK   11  A    between atoms: _22  and  _23
REMARK   12  A    between atoms: _25  and  _27
REMARK   13  A    between atoms: _27  and  _28
REMARK   14  A    between atoms: _27  and  _30
REMARK   15  A    between atoms: _30  and  _31
REMARK   16  A    between atoms: _34  and  _36
REMARK   17  A    between atoms: _36  and  _37
REMARK   18  A    between atoms: _36  and  _39
REMARK   19  A    between atoms: _39  and  _40
REMARK   20  A    between atoms: _43  and  _45
REMARK   21  A    between atoms: _45  and  _46
REMARK   22  A    between atoms: _45  and  _48
REMARK   23  A    between atoms: _48  and  _49
REMARK   24  A    between atoms: _49  and  _50
REMARK   25  A    between atoms: _50  and  _51
REMARK   26  A    between atoms: _60  and  _62
REMARK   27  A    between atoms: _62  and  _63
REMARK   28  A    between atoms: _62  and  _65
REMARK   29  A    between atoms: _65  and  _66
REMARK   30  A    between atoms: _69  and  _71
REMARK   31  A    between atoms: _71  and  _72
REMARK   32  A    between atoms: _74  and  _76
REMARK   33  A    between atoms: _76  and  _77
REMARK   34  A    between atoms: _76  and  _79
REMARK   35  A    between atoms: _79  and  _80
REMARK   36  A    between atoms: _80  and  _81
REMARK   37  A    between atoms: _81  and  _82
REMARK   38  A    between atoms: _82  and  _83
REMARK   39  A    between atoms: _87  and  _89
REMARK   40  A    between atoms: _89  and  _90
REMARK   41  A    between atoms: _89  and  _92
REMARK   42  A    between atoms: _92  and  _93
REMARK   43  A    between atoms: _96  and  _98
REMARK   44  A    between atoms: _98  and  _99
REMARK   45  A    between atoms: _98  and  _101
REMARK   46  A    between atoms: _101  and  _102
REMARK   47  A    between atoms: _105  and  _107
REMARK   48  A    between atoms: _107  and  _108
REMARK   49  A    between atoms: _107  and  _110
REMARK   50  A    between atoms: _110  and  _111
REMARK   51  A    between atoms: _111  and  _112
REMARK   52  A    between atoms: _117  and  _119
REMARK   53  A    between atoms: _119  and  _120
REMARK   54  A    between atoms: _119  and  _122
REMARK   55  A    between atoms: _124  and  _126
REMARK   56  A    between atoms: _126  and  _127
REMARK   57  A    between atoms: _126  and  _129
REMARK   58  A    between atoms: _129  and  _130
REMARK   59  A    between atoms: _135  and  _137
REMARK   60  A    between atoms: _137  and  _138
REMARK   61  A    between atoms: _137  and  _140
REMARK   62  A    between atoms: _140  and  _141
REMARK   63  A    between atoms: _144  and  _146
REMARK   64  A    between atoms: _146  and  _147
REMARK   65  A    between atoms: _146  and  _149
REMARK   66  A    between atoms: _149  and  _150
REMARK   67  A    between atoms: _150  and  _151
REMARK   68  A    between atoms: _151  and  _152
REMARK   69  A    between atoms: _152  and  _153
REMARK   70  A    between atoms: _157  and  _159
REMARK   71  A    between atoms: _159  and  _160
REMARK   72  A    between atoms: _159  and  _162
REMARK   73  A    between atoms: _162  and  _163
REMARK   74  A    between atoms: _170  and  _171
REMARK   75  A    between atoms: _176  and  _178
REMARK   76  A    between atoms: _178  and  _179
REMARK   77  A    between atoms: _178  and  _181
REMARK   78  A    between atoms: _181  and  _182
REMARK   79  A    between atoms: _182  and  _183
REMARK   80  A    between atoms: _186  and  _188
REMARK   81  A    between atoms: _188  and  _189
REMARK   82  A    between atoms: _188  and  _191
REMARK   83  A    between atoms: _191  and  _192
REMARK   84  A    between atoms: _192  and  _193
REMARK   85  A    between atoms: _193  and  _194
REMARK   86  A    between atoms: _203  and  _205
REMARK   87  A    between atoms: _205  and  _206
REMARK   88  A    between atoms: _205  and  _208
REMARK   89  A    between atoms: _208  and  _209
REMARK   90  A    between atoms: _212  and  _214
REMARK   91  A    between atoms: _214  and  _215
REMARK   92  A    between atoms: _214  and  _217
REMARK   93  A    between atoms: _217  and  _218
REMARK   94  A    between atoms: _223  and  _225
REMARK   95  A    between atoms: _225  and  _226
REMARK   96  A    between atoms: _225  and  _228
REMARK   97  A    between atoms: _228  and  _229
REMARK   98  A    between atoms: _234  and  _235
REMARK   99  A    between atoms: _237  and  _239
REMARK  100  A    between atoms: _239  and  _240
REMARK  101  A    between atoms: _239  and  _242
REMARK  102  A    between atoms: _242  and  _243
REMARK  103  A    between atoms: _246  and  _248
REMARK  104  A    between atoms: _248  and  _249
REMARK  105  A    between atoms: _248  and  _251
REMARK  106  A    between atoms: _251  and  _252
REMARK  107  A    between atoms: _255  and  _257
REMARK  108  A    between atoms: _257  and  _258
REMARK  109  A    between atoms: _257  and  _260
REMARK  110  A    between atoms: _260  and  _261
REMARK  111  A    between atoms: _264  and  _266
REMARK  112  A    between atoms: _266  and  _267
REMARK  113  A    between atoms: _266  and  _269
REMARK  114  A    between atoms: _269  and  _270
REMARK  115  A    between atoms: _275  and  _277
REMARK  116  A    between atoms: _277  and  _278
REMARK  117  A    between atoms: _277  and  _280
REMARK  118  A    between atoms: _280  and  _281
REMARK  119  A    between atoms: _284  and  _286
REMARK  120  A    between atoms: _286  and  _287
REMARK  121  A    between atoms: _286  and  _289
REMARK  122  A    between atoms: _289  and  _290
REMARK  123  A    between atoms: _296  and  _298
REMARK  124  A    between atoms: _298  and  _299
REMARK  125  A    between atoms: _298  and  _301
REMARK  126  A    between atoms: _301  and  _302
REMARK  127  A    between atoms: _304  and  _306
REMARK  128  A    between atoms: _306  and  _307
REMARK  129  A    between atoms: _310  and  _312
REMARK  130  A    between atoms: _312  and  _313
REMARK  131  A    between atoms: _312  and  _315
REMARK  132  A    between atoms: _315  and  _316
REMARK  133  A    between atoms: _321  and  _323
REMARK  134  A    between atoms: _323  and  _324
REMARK  135  A    between atoms: _323  and  _326
REMARK  136  A    between atoms: _326  and  _327
REMARK  137  A    between atoms: _327  and  _328
REMARK  138  A    between atoms: _328  and  _329
REMARK  139  A    between atoms: _338  and  _340
REMARK  140  A    between atoms: _340  and  _341
REMARK  141  A    between atoms: _340  and  _343
REMARK  142  A    between atoms: _343  and  _344
REMARK  143  A    between atoms: _347  and  _349
REMARK  144  A    between atoms: _349  and  _350
REMARK  145  A    between atoms: _349  and  _352
REMARK  146  A    between atoms: _352  and  _353
REMARK  147  A    between atoms: _353  and  _354
REMARK  148  A    between atoms: _354  and  _355
REMARK  149  A    between atoms: _364  and  _366
REMARK  150  A    between atoms: _366  and  _367
REMARK  151  A    between atoms: _366  and  _369
REMARK  152  A    between atoms: _369  and  _370
REMARK  153  A    between atoms: _375  and  _376
REMARK  154  A    between atoms: _378  and  _380
REMARK  155  A    between atoms: _380  and  _381
REMARK  156  A    between atoms: _380  and  _383
REMARK  157  A    between atoms: _386  and  _388
REMARK  158  A    between atoms: _388  and  _389
REMARK  159  A    between atoms: _388  and  _391
REMARK  160  A    between atoms: _391  and  _392
REMARK  161  A    between atoms: _397  and  _398
REMARK  162  A    between atoms: _400  and  _402
REMARK  163  A    between atoms: _402  and  _403
REMARK  164  A    between atoms: _402  and  _405
REMARK  165  A    between atoms: _405  and  _406
REMARK  166  A    between atoms: _408  and  _410
REMARK  167  A    between atoms: _410  and  _411
REMARK  168  A    between atoms: _413  and  _415
REMARK  169  A    between atoms: _415  and  _416
REMARK  170  A    between atoms: _415  and  _418
REMARK  171  A    between atoms: _421  and  _423
REMARK  172  A    between atoms: _423  and  _424
REMARK  173  A    between atoms: _427  and  _429
REMARK  174  A    between atoms: _429  and  _430
REMARK  175  A    between atoms: _429  and  _432
REMARK  176  A    between atoms: _432  and  _433
REMARK  177  A    between atoms: _438  and  _439
REMARK  178  A    between atoms: _441  and  _443
REMARK  179  A    between atoms: _443  and  _444
REMARK  180  A    between atoms: _443  and  _446
REMARK  181  A    between atoms: _446  and  _447
REMARK  182  A    between atoms: _449  and  _451
REMARK  183  A    between atoms: _451  and  _452
REMARK  184  A    between atoms: _455  and  _457
REMARK  185  A    between atoms: _457  and  _458
REMARK  186  A    between atoms: _461  and  _463
REMARK  187  A    between atoms: _463  and  _464
REMARK  188  A    between atoms: _463  and  _466
REMARK  189  A    between atoms: _466  and  _467
REMARK  190  A    between atoms: _467  and  _468
REMARK  191  A    between atoms: _468  and  _469
REMARK  192  A    between atoms: _469  and  _470
REMARK  193  A    between atoms: _474  and  _476
REMARK  194  A    between atoms: _476  and  _477
REMARK  195  A    between atoms: _476  and  _479
REMARK  196  A    between atoms: _479  and  _480
REMARK  197  A    between atoms: _483  and  _485
REMARK  198  A    between atoms: _485  and  _486
REMARK  199  A    between atoms: _485  and  _488
REMARK  200  A    between atoms: _488  and  _489
REMARK  201  A    between atoms: _492  and  _494
REMARK  202  A    between atoms: _494  and  _495
REMARK  203  A    between atoms: _494  and  _497
REMARK  204  A    between atoms: _497  and  _498
REMARK  205  A    between atoms: _501  and  _503
REMARK  206  A    between atoms: _503  and  _504
REMARK  207  A    between atoms: _503  and  _506
REMARK  208  A    between atoms: _506  and  _507
REMARK  209  A    between atoms: _512  and  _514
REMARK  210  A    between atoms: _514  and  _515
REMARK  211  A    between atoms: _514  and  _517
REMARK  212  A    between atoms: _517  and  _518
REMARK  213  A    between atoms: _523  and  _525
REMARK  214  A    between atoms: _525  and  _526
REMARK  215  A    between atoms: _529  and  _531
REMARK  216  A    between atoms: _531  and  _532
REMARK  217  A    between atoms: _531  and  _534
REMARK  218  A    between atoms: _534  and  _535
REMARK  219  A    between atoms: _535  and  _536
REMARK  220  A    between atoms: _539  and  _541
REMARK  221  A    between atoms: _541  and  _542
REMARK  222  A    between atoms: _541  and  _544
REMARK  223  A    between atoms: _544  and  _545
REMARK  224  A    between atoms: _545  and  _546
REMARK  225  A    between atoms: _546  and  _547
REMARK  226  A    between atoms: _547  and  _548
REMARK  227  A    between atoms: _552  and  _554
REMARK  228  A    between atoms: _554  and  _555
REMARK  229  A    between atoms: _554  and  _557
REMARK  230  A    between atoms: _557  and  _558
REMARK  231  A    between atoms: _560  and  _562
REMARK  232  A    between atoms: _562  and  _563
REMARK  233  A    between atoms: _565  and  _567
REMARK  234  A    between atoms: _567  and  _568
REMARK  235  A    between atoms: _567  and  _570
REMARK  236  A    between atoms: _570  and  _571
REMARK  237  A    between atoms: _574  and  _576
REMARK  238  A    between atoms: _576  and  _577
REMARK  239  A    between atoms: _576  and  _579
REMARK  240  A    between atoms: _579  and  _580
REMARK  241  A    between atoms: _580  and  _581
REMARK  242  A    between atoms: _584  and  _586
REMARK  243  A    between atoms: _586  and  _587
REMARK  244  A    between atoms: _586  and  _589
REMARK  245  A    between atoms: _589  and  _590
REMARK  246  A    between atoms: _590  and  _591
REMARK  247  A    between atoms: _591  and  _592
REMARK  248  A    between atoms: _601  and  _603
REMARK  249  A    between atoms: _603  and  _604
REMARK  250  A    between atoms: _603  and  _606
REMARK  251  A    between atoms: _606  and  _607
REMARK  252  A    between atoms: _612  and  _613
REMARK  253  A    between atoms: _615  and  _617
REMARK  254  A    between atoms: _617  and  _618
REMARK  255  A    between atoms: _617  and  _620
REMARK  256  A    between atoms: _620  and  _621
REMARK  257  A    between atoms: _621  and  _622
REMARK  258  A    between atoms: _625  and  _627
REMARK  259  A    between atoms: _627  and  _628
REMARK  260  A    between atoms: _627  and  _630
REMARK  261  A    between atoms: _630  and  _631
REMARK  262  A    between atoms: _634  and  _636
REMARK  263  A    between atoms: _636  and  _637
REMARK  264  A    between atoms: _636  and  _639
REMARK  265  A    between atoms: _639  and  _640
REMARK  266  A    between atoms: _646  and  _648
REMARK  267  A    between atoms: _648  and  _649
REMARK  268  A    between atoms: _648  and  _651
REMARK  269  A    between atoms: _651  and  _652
REMARK  270  A    between atoms: _652  and  _653
REMARK  271  A    between atoms: _658  and  _660
REMARK  272  A    between atoms: _660  and  _661
REMARK  273  A    between atoms: _660  and  _663
REMARK  274  A    between atoms: _666  and  _668
REMARK  275  A    between atoms: _668  and  _669
REMARK  276  A    between atoms: _668  and  _671
REMARK  277  A    between atoms: _671  and  _672
REMARK  278  A    between atoms: _678  and  _680
REMARK  279  A    between atoms: _680  and  _681
REMARK  280  A    between atoms: _680  and  _683
REMARK  281  A    between atoms: _686  and  _688
REMARK  282  A    between atoms: _688  and  _689
REMARK  283  A    between atoms: _688  and  _691
REMARK  284  A    between atoms: _691  and  _692
REMARK  285  A    between atoms: _695  and  _697
REMARK  286  A    between atoms: _697  and  _698
REMARK  287  A    between atoms: _697  and  _700
REMARK  288  A    between atoms: _700  and  _701
REMARK  289  A    between atoms: _706  and  _708
REMARK  290  A    between atoms: _708  and  _709
REMARK  291  A    between atoms: _708  and  _711
REMARK  292  A    between atoms: _711  and  _712
REMARK  293  A    between atoms: _712  and  _713
REMARK  294  A    between atoms: _713  and  _714
REMARK  295  A    between atoms: _714  and  _715
REMARK  296  A    between atoms: _719  and  _721
REMARK  297  A    between atoms: _721  and  _722
REMARK  298  A    between atoms: _724  and  _726
REMARK  299  A    between atoms: _726  and  _727
REMARK  300  A    between atoms: _726  and  _729
REMARK  301  A    between atoms: _729  and  _730
REMARK  302  A    between atoms: _733  and  _735
REMARK  303  A    between atoms: _735  and  _736
REMARK  304  A    between atoms: _735  and  _738
REMARK  305  A    between atoms: _738  and  _739
REMARK  306  A    between atoms: _739  and  _740
REMARK  307  A    between atoms: _745  and  _747
REMARK  308  A    between atoms: _747  and  _748
REMARK  309  A    between atoms: _747  and  _750
REMARK  310  A    between atoms: _750  and  _751
REMARK  311  A    between atoms: _751  and  _752
REMARK  312  A    between atoms: _755  and  _757
REMARK  313  A    between atoms: _757  and  _758
REMARK  314  A    between atoms: _757  and  _760
REMARK  315  A    between atoms: _763  and  _765
REMARK  316  A    between atoms: _765  and  _766
REMARK  317  A    between atoms: _765  and  _768
REMARK  318  A    between atoms: _768  and  _769
REMARK  319  A    between atoms: _769  and  _770
REMARK                            x       y       z     vdW  Elec       q    Type
REMARK                         _______ _______ _______ _____ _____    ______ ____
ROOT
ATOM      1  O   HOH     1      -6.665  -1.496 144.029  0.00  0.00    +0.000 OA
ENDROOT
TORSDOF 0
REMARK  Name = ../refined-set-2016/3tmk/3tmk_pocket.pdb
REMARK  319 active torsions:
REMARK  status: ('A' for Active; 'I' for Inactive)
REMARK    1  A    between atoms: _1  and  _3
REMARK    2  A    between atoms: _3  and  _4
REMARK    3  A    between atoms: _3  and  _6
REMARK    4  A    between atoms: _6  and  _7
REMARK    5  A    between atoms: _10  and  _12
REMARK    6  A    between atoms: _12  and  _13
REMARK    7  A    between atoms: _12  and  _15
REMARK    8  A    between atoms: _15  and  _16
REMARK    9  A    between atoms: _16  and  _17
REMARK   10  A    between atoms: _20  and  _22
REMARK   11  A    between atoms: _22  and  _23
REMARK   12  A    between atoms: _25  and  _27
REMARK   13  A    between atoms: _27  and  _28
REMARK   14  A    between atoms: _27  and  _30
REMARK   15  A    between atoms: _30  and  _31
REMARK   16  A    between atoms: _34  and  _36
REMARK   17  A    between atoms: _36  and  _37
REMARK   18  A    between atoms: _36  and  _39
REMARK   19  A    between atoms: _39  and  _40
REMARK   20  A    between atoms: _43  and  _45
REMARK   21  A    between atoms: _45  and  _46
REMARK   22  A    between atoms: _45  and  _48
REMARK   23  A    between atoms: _48  and  _49
REMARK   24  A    between atoms: _49  and  _50
REMARK   25  A    between atoms: _50  and  _51
REMARK   26  A    between atoms: _60  and  _62
REMARK   27  A    between atoms: _62  and  _63
REMARK   28  A    between atoms: _62  and  _65
REMARK   29  A    between atoms: _65  and  _66
REMARK   30  A    between atoms: _69  and  _71
REMARK   31  A    between atoms: _71  and  _72
REMARK   32  A    between atoms: _74  and  _76
REMARK   33  A    between atoms: _76  and  _77
REMARK   34  A    between atoms: _76  and  _79
REMARK   35  A    between atoms: _79  and  _80
REMARK   36  A    between atoms: _80  and  _81
REMARK   37  A    between atoms: _81  and  _82
REMARK   38  A    between atoms: _82  and  _83
REMARK   39  A    between atoms: _87  and  _89
REMARK   40  A    between atoms: _89  and  _90
REMARK   41  A    between atoms: _89  and  _92
REMARK   42  A    between atoms: _92  and  _93
REMARK   43  A    between atoms: _96  and  _98
REMARK   44  A    between atoms: _98  and  _99
REMARK   45  A    between atoms: _98  and  _101
REMARK   46  A    between atoms: _101  and  _102
REMARK   47  A    between atoms: _105  and  _107
REMARK   48  A    between atoms: _107  and  _108
REMARK   49  A    between atoms: _107  and  _110
REMARK   50  A    between atoms: _110  and  _111
REMARK   51  A    between atoms: _111  and  _112
REMARK   52  A    between atoms: _117  and  _119
REMARK   53  A    between atoms: _119  and  _120
REMARK   54  A    between atoms: _119  and  _122
REMARK   55  A    between atoms: _124  and  _126
REMARK   56  A    between atoms: _126  and  _127
REMARK   57  A    between atoms: _126  and  _129
REMARK   58  A    between atoms: _129  and  _130
REMARK   59  A    between atoms: _135  and  _137
REMARK   60  A    between atoms: _137  and  _138
REMARK   61  A    between atoms: _137  and  _140
REMARK   62  A    between atoms: _140  and  _141
REMARK   63  A    between atoms: _144  and  _146
REMARK   64  A    between atoms: _146  and  _147
REMARK   65  A    between atoms: _146  and  _149
REMARK   66  A    between atoms: _149  and  _150
REMARK   67  A    between atoms: _150  and  _151
REMARK   68  A    between atoms: _151  and  _152
REMARK   69  A    between atoms: _152  and  _153
REMARK   70  A    between atoms: _157  and  _159
REMARK   71  A    between atoms: _159  and  _160
REMARK   72  A    between atoms: _159  and  _162
REMARK   73  A    between atoms: _162  and  _163
REMARK   74  A    between atoms: _170  and  _171
REMARK   75  A    between atoms: _176  and  _178
REMARK   76  A    between atoms: _178  and  _179
REMARK   77  A    between atoms: _178  and  _181
REMARK   78  A    between atoms: _181  and  _182
REMARK   79  A    between atoms: _182  and  _183
REMARK   80  A    between atoms: _186  and  _188
REMARK   81  A    between atoms: _188  and  _189
REMARK   82  A    between atoms: _188  and  _191
REMARK   83  A    between atoms: _191  and  _192
REMARK   84  A    between atoms: _192  and  _193
REMARK   85  A    between atoms: _193  and  _194
REMARK   86  A    between atoms: _203  and  _205
REMARK   87  A    between atoms: _205  and  _206
REMARK   88  A    between atoms: _205  and  _208
REMARK   89  A    between atoms: _208  and  _209
REMARK   90  A    between atoms: _212  and  _214
REMARK   91  A    between atoms: _214  and  _215
REMARK   92  A    between atoms: _214  and  _217
REMARK   93  A    between atoms: _217  and  _218
REMARK   94  A    between atoms: _223  and  _225
REMARK   95  A    between atoms: _225  and  _226
REMARK   96  A    between atoms: _225  and  _228
REMARK   97  A    between atoms: _228  and  _229
REMARK   98  A    between atoms: _234  and  _235
REMARK   99  A    between atoms: _237  and  _239
REMARK  100  A    between atoms: _239  and  _240
REMARK  101  A    between atoms: _239  and  _242
REMARK  102  A    between atoms: _242  and  _243
REMARK  103  A    between atoms: _246  and  _248
REMARK  104  A    between atoms: _248  and  _249
REMARK  105  A    between atoms: _248  and  _251
REMARK  106  A    between atoms: _251  and  _252
REMARK  107  A    between atoms: _255  and  _257
REMARK  108  A    between atoms: _257  and  _258
REMARK  109  A    between atoms: _257  and  _260
REMARK  110  A    between atoms: _260  and  _261
REMARK  111  A    between atoms: _264  and  _266
REMARK  112  A    between atoms: _266  and  _267
REMARK  113  A    between atoms: _266  and  _269
REMARK  114  A    between atoms: _269  and  _270
REMARK  115  A    between atoms: _275  and  _277
REMARK  116  A    between atoms: _277  and  _278
REMARK  117  A    between atoms: _277  and  _280
REMARK  118  A    between atoms: _280  and  _281
REMARK  119  A    between atoms: _284  and  _286
REMARK  120  A    between atoms: _286  and  _287
REMARK  121  A    between atoms: _286  and  _289
REMARK  122  A    between atoms: _289  and  _290
REMARK  123  A    between atoms: _296  and  _298
REMARK  124  A    between atoms: _298  and  _299
REMARK  125  A    between atoms: _298  and  _301
REMARK  126  A    between atoms: _301  and  _302
REMARK  127  A    between atoms: _304  and  _306
REMARK  128  A    between atoms: _306  and  _307
REMARK  129  A    between atoms: _310  and  _312
REMARK  130  A    between atoms: _312  and  _313
REMARK  131  A    between atoms: _312  and  _315
REMARK  132  A    between atoms: _315  and  _316
REMARK  133  A    between atoms: _321  and  _323
REMARK  134  A    between atoms: _323  and  _324
REMARK  135  A    between atoms: _323  and  _326
REMARK  136  A    between atoms: _326  and  _327
REMARK  137  A    between atoms: _327  and  _328
REMARK  138  A    between atoms: _328  and  _329
REMARK  139  A    between atoms: _338  and  _340
REMARK  140  A    between atoms: _340  and  _341
REMARK  141  A    between atoms: _340  and  _343
REMARK  142  A    between atoms: _343  and  _344
REMARK  143  A    between atoms: _347  and  _349
REMARK  144  A    between atoms: _349  and  _350
REMARK  145  A    between atoms: _349  and  _352
REMARK  146  A    between atoms: _352  and  _353
REMARK  147  A    between atoms: _353  and  _354
REMARK  148  A    between atoms: _354  and  _355
REMARK  149  A    between atoms: _364  and  _366
REMARK  150  A    between atoms: _366  and  _367
REMARK  151  A    between atoms: _366  and  _369
REMARK  152  A    between atoms: _369  and  _370
REMARK  153  A    between atoms: _375  and  _376
REMARK  154  A    between atoms: _378  and  _380
REMARK  155  A    between atoms: _380  and  _381
REMARK  156  A    between atoms: _380  and  _383
REMARK  157  A    between atoms: _386  and  _388
REMARK  158  A    between atoms: _388  and  _389
REMARK  159  A    between atoms: _388  and  _391
REMARK  160  A    between atoms: _391  and  _392
REMARK  161  A    between atoms: _397  and  _398
REMARK  162  A    between atoms: _400  and  _402
REMARK  163  A    between atoms: _402  and  _403
REMARK  164  A    between atoms: _402  and  _405
REMARK  165  A    between atoms: _405  and  _406
REMARK  166  A    between atoms: _408  and  _410
REMARK  167  A    between atoms: _410  and  _411
REMARK  168  A    between atoms: _413  and  _415
REMARK  169  A    between atoms: _415  and  _416
REMARK  170  A    between atoms: _415  and  _418
REMARK  171  A    between atoms: _421  and  _423
REMARK  172  A    between atoms: _423  and  _424
REMARK  173  A    between atoms: _427  and  _429
REMARK  174  A    between atoms: _429  and  _430
REMARK  175  A    between atoms: _429  and  _432
REMARK  176  A    between atoms: _432  and  _433
REMARK  177  A    between atoms: _438  and  _439
REMARK  178  A    between atoms: _441  and  _443
REMARK  179  A    between atoms: _443  and  _444
REMARK  180  A    between atoms: _443  and  _446
REMARK  181  A    between atoms: _446  and  _447
REMARK  182  A    between atoms: _449  and  _451
REMARK  183  A    between atoms: _451  and  _452
REMARK  184  A    between atoms: _455  and  _457
REMARK  185  A    between atoms: _457  and  _458
REMARK  186  A    between atoms: _461  and  _463
REMARK  187  A    between atoms: _463  and  _464
REMARK  188  A    between atoms: _463  and  _466
REMARK  189  A    between atoms: _466  and  _467
REMARK  190  A    between atoms: _467  and  _468
REMARK  191  A    between atoms: _468  and  _469
REMARK  192  A    between atoms: _469  and  _470
REMARK  193  A    between atoms: _474  and  _476
REMARK  194  A    between atoms: _476  and  _477
REMARK  195  A    between atoms: _476  and  _479
REMARK  196  A    between atoms: _479  and  _480
REMARK  197  A    between atoms: _483  and  _485
REMARK  198  A    between atoms: _485  and  _486
REMARK  199  A    between atoms: _485  and  _488
REMARK  200  A    between atoms: _488  and  _489
REMARK  201  A    between atoms: _492  and  _494
REMARK  202  A    between atoms: _494  and  _495
REMARK  203  A    between atoms: _494  and  _497
REMARK  204  A    between atoms: _497  and  _498
REMARK  205  A    between atoms: _501  and  _503
REMARK  206  A    between atoms: _503  and  _504
REMARK  207  A    between atoms: _503  and  _506
REMARK  208  A    between atoms: _506  and  _507
REMARK  209  A    between atoms: _512  and  _514
REMARK  210  A    between atoms: _514  and  _515
REMARK  211  A    between atoms: _514  and  _517
REMARK  212  A    between atoms: _517  and  _518
REMARK  213  A    between atoms: _523  and  _525
REMARK  214  A    between atoms: _525  and  _526
REMARK  215  A    between atoms: _529  and  _531
REMARK  216  A    between atoms: _531  and  _532
REMARK  217  A    between atoms: _531  and  _534
REMARK  218  A    between atoms: _534  and  _535
REMARK  219  A    between atoms: _535  and  _536
REMARK  220  A    between atoms: _539  and  _541
REMARK  221  A    between atoms: _541  and  _542
REMARK  222  A    between atoms: _541  and  _544
REMARK  223  A    between atoms: _544  and  _545
REMARK  224  A    between atoms: _545  and  _546
REMARK  225  A    between atoms: _546  and  _547
REMARK  226  A    between atoms: _547  and  _548
REMARK  227  A    between atoms: _552  and  _554
REMARK  228  A    between atoms: _554  and  _555
REMARK  229  A    between atoms: _554  and  _557
REMARK  230  A    between atoms: _557  and  _558
REMARK  231  A    between atoms: _560  and  _562
REMARK  232  A    between atoms: _562  and  _563
REMARK  233  A    between atoms: _565  and  _567
REMARK  234  A    between atoms: _567  and  _568
REMARK  235  A    between atoms: _567  and  _570
REMARK  236  A    between atoms: _570  and  _571
REMARK  237  A    between atoms: _574  and  _576
REMARK  238  A    between atoms: _576  and  _577
REMARK  239  A    between atoms: _576  and  _579
REMARK  240  A    between atoms: _579  and  _580
REMARK  241  A    between atoms: _580  and  _581
REMARK  242  A    between atoms: _584  and  _586
REMARK  243  A    between atoms: _586  and  _587
REMARK  244  A    between atoms: _586  and  _589
REMARK  245  A    between atoms: _589  and  _590
REMARK  246  A    between atoms: _590  and  _591
REMARK  247  A    between atoms: _591  and  _592
REMARK  248  A    between atoms: _601  and  _603
REMARK  249  A    between atoms: _603  and  _604
REMARK  250  A    between atoms: _603  and  _606
REMARK  251  A    between atoms: _606  and  _607
REMARK  252  A    between atoms: _612  and  _613
REMARK  253  A    between atoms: _615  and  _617
REMARK  254  A    between atoms: _617  and  _618
REMARK  255  A    between atoms: _617  and  _620
REMARK  256  A    between atoms: _620  and  _621
REMARK  257  A    between atoms: _621  and  _622
REMARK  258  A    between atoms: _625  and  _627
REMARK  259  A    between atoms: _627  and  _628
REMARK  260  A    between atoms: _627  and  _630
REMARK  261  A    between atoms: _630  and  _631
REMARK  262  A    between atoms: _634  and  _636
REMARK  263  A    between atoms: _636  and  _637
REMARK  264  A    between atoms: _636  and  _639
REMARK  265  A    between atoms: _639  and  _640
REMARK  266  A    between atoms: _646  and  _648
REMARK  267  A    between atoms: _648  and  _649
REMARK  268  A    between atoms: _648  and  _651
REMARK  269  A    between atoms: _651  and  _652
REMARK  270  A    between atoms: _652  and  _653
REMARK  271  A    between atoms: _658  and  _660
REMARK  272  A    between atoms: _660  and  _661
REMARK  273  A    between atoms: _660  and  _663
REMARK  274  A    between atoms: _666  and  _668
REMARK  275  A    between atoms: _668  and  _669
REMARK  276  A    between atoms: _668  and  _671
REMARK  277  A    between atoms: _671  and  _672
REMARK  278  A    between atoms: _678  and  _680
REMARK  279  A    between atoms: _680  and  _681
REMARK  280  A    between atoms: _680  and  _683
REMARK  281  A    between atoms: _686  and  _688
REMARK  282  A    between atoms: _688  and  _689
REMARK  283  A    between atoms: _688  and  _691
REMARK  284  A    between atoms: _691  and  _692
REMARK  285  A    between atoms: _695  and  _697
REMARK  286  A    between atoms: _697  and  _698
REMARK  287  A    between atoms: _697  and  _700
REMARK  288  A    between atoms: _700  and  _701
REMARK  289  A    between atoms: _706  and  _708
REMARK  290  A    between atoms: _708  and  _709
REMARK  291  A    between atoms: _708  and  _711
REMARK  292  A    between atoms: _711  and  _712
REMARK  293  A    between atoms: _712  and  _713
REMARK  294  A    between atoms: _713  and  _714
REMARK  295  A    between atoms: _714  and  _715
REMARK  296  A    between atoms: _719  and  _721
REMARK  297  A    between atoms: _721  and  _722
REMARK  298  A    between atoms: _724  and  _726
REMARK  299  A    between atoms: _726  and  _727
REMARK  300  A    between atoms: _726  and  _729
REMARK  301  A    between atoms: _729  and  _730
REMARK  302  A    between atoms: _733  and  _735
REMARK  303  A    between atoms: _735  and  _736
REMARK  304  A    between atoms: _735  and  _738
REMARK  305  A    between atoms: _738  and  _739
REMARK  306  A    between atoms: _739  and  _740
REMARK  307  A    between atoms: _745  and  _747
REMARK  308  A    between atoms: _747  and  _748
REMARK  309  A    between atoms: _747  and  _750
REMARK  310  A    between atoms: _750  and  _751
REMARK  311  A    between atoms: _751  and  _752
REMARK  312  A    between atoms: _755  and  _757
REMARK  313  A    between atoms: _757  and  _758
REMARK  314  A    between atoms: _757  and  _760
REMARK  315  A    between atoms: _763  and  _765
REMARK  316  A    between atoms: _765  and  _766
REMARK  317  A    between atoms: _765  and  _768
REMARK  318  A    between atoms: _768  and  _769
REMARK  319  A    between atoms: _769  and  _770
REMARK                            x       y       z     vdW  Elec       q    Type
REMARK                         _______ _______ _______ _____ _____    ______ ____
ROOT
ATOM      1  O   HOH     1       4.770  -5.219 166.600  0.00  0.00    +0.000 OA
ENDROOT
TORSDOF 0
REMARK  Name = ../refined-set-2016/3tmk/3tmk_pocket.pdb
REMARK  319 active torsions:
REMARK  status: ('A' for Active; 'I' for Inactive)
REMARK    1  A    between atoms: _1  and  _3
REMARK    2  A    between atoms: _3  and  _4
REMARK    3  A    between atoms: _3  and  _6
REMARK    4  A    between atoms: _6  and  _7
REMARK    5  A    between atoms: _10  and  _12
REMARK    6  A    between atoms: _12  and  _13
REMARK    7  A    between atoms: _12  and  _15
REMARK    8  A    between atoms: _15  and  _16
REMARK    9  A    between atoms: _16  and  _17
REMARK   10  A    between atoms: _20  and  _22
REMARK   11  A    between atoms: _22  and  _23
REMARK   12  A    between atoms: _25  and  _27
REMARK   13  A    between atoms: _27  and  _28
REMARK   14  A    between atoms: _27  and  _30
REMARK   15  A    between atoms: _30  and  _31
REMARK   16  A    between atoms: _34  and  _36
REMARK   17  A    between atoms: _36  and  _37
REMARK   18  A    between atoms: _36  and  _39
REMARK   19  A    between atoms: _39  and  _40
REMARK   20  A    between atoms: _43  and  _45
REMARK   21  A    between atoms: _45  and  _46
REMARK   22  A    between atoms: _45  and  _48
REMARK   23  A    between atoms: _48  and  _49
REMARK   24  A    between atoms: _49  and  _50
REMARK   25  A    between atoms: _50  and  _51
REMARK   26  A    between atoms: _60  and  _62
REMARK   27  A    between atoms: _62  and  _63
REMARK   28  A    between atoms: _62  and  _65
REMARK   29  A    between atoms: _65  and  _66
REMARK   30  A    between atoms: _69  and  _71
REMARK   31  A    between atoms: _71  and  _72
REMARK   32  A    between atoms: _74  and  _76
REMARK   33  A    between atoms: _76  and  _77
REMARK   34  A    between atoms: _76  and  _79
REMARK   35  A    between atoms: _79  and  _80
REMARK   36  A    between atoms: _80  and  _81
REMARK   37  A    between atoms: _81  and  _82
REMARK   38  A    between atoms: _82  and  _83
REMARK   39  A    between atoms: _87  and  _89
REMARK   40  A    between atoms: _89  and  _90
REMARK   41  A    between atoms: _89  and  _92
REMARK   42  A    between atoms: _92  and  _93
REMARK   43  A    between atoms: _96  and  _98
REMARK   44  A    between atoms: _98  and  _99
REMARK   45  A    between atoms: _98  and  _101
REMARK   46  A    between atoms: _101  and  _102
REMARK   47  A    between atoms: _105  and  _107
REMARK   48  A    between atoms: _107  and  _108
REMARK   49  A    between atoms: _107  and  _110
REMARK   50  A    between atoms: _110  and  _111
REMARK   51  A    between atoms: _111  and  _112
REMARK   52  A    between atoms: _117  and  _119
REMARK   53  A    between atoms: _119  and  _120
REMARK   54  A    between atoms: _119  and  _122
REMARK   55  A    between atoms: _124  and  _126
REMARK   56  A    between atoms: _126  and  _127
REMARK   57  A    between atoms: _126  and  _129
REMARK   58  A    between atoms: _129  and  _130
REMARK   59  A    between atoms: _135  and  _137
REMARK   60  A    between atoms: _137  and  _138
REMARK   61  A    between atoms: _137  and  _140
REMARK   62  A    between atoms: _140  and  _141
REMARK   63  A    between atoms: _144  and  _146
REMARK   64  A    between atoms: _146  and  _147
REMARK   65  A    between atoms: _146  and  _149
REMARK   66  A    between atoms: _149  and  _150
REMARK   67  A    between atoms: _150  and  _151
REMARK   68  A    between atoms: _151  and  _152
REMARK   69  A    between atoms: _152  and  _153
REMARK   70  A    between atoms: _157  and  _159
REMARK   71  A    between atoms: _159  and  _160
REMARK   72  A    between atoms: _159  and  _162
REMARK   73  A    between atoms: _162  and  _163
REMARK   74  A    between atoms: _170  and  _171
REMARK   75  A    between atoms: _176  and  _178
REMARK   76  A    between atoms: _178  and  _179
REMARK   77  A    between atoms: _178  and  _181
REMARK   78  A    between atoms: _181  and  _182
REMARK   79  A    between atoms: _182  and  _183
REMARK   80  A    between atoms: _186  and  _188
REMARK   81  A    between atoms: _188  and  _189
REMARK   82  A    between atoms: _188  and  _191
REMARK   83  A    between atoms: _191  and  _192
REMARK   84  A    between atoms: _192  and  _193
REMARK   85  A    between atoms: _193  and  _194
REMARK   86  A    between atoms: _203  and  _205
REMARK   87  A    between atoms: _205  and  _206
REMARK   88  A    between atoms: _205  and  _208
REMARK   89  A    between atoms: _208  and  _209
REMARK   90  A    between atoms: _212  and  _214
REMARK   91  A    between atoms: _214  and  _215
REMARK   92  A    between atoms: _214  and  _217
REMARK   93  A    between atoms: _217  and  _218
REMARK   94  A    between atoms: _223  and  _225
REMARK   95  A    between atoms: _225  and  _226
REMARK   96  A    between atoms: _225  and  _228
REMARK   97  A    between atoms: _228  and  _229
REMARK   98  A    between atoms: _234  and  _235
REMARK   99  A    between atoms: _237  and  _239
REMARK  100  A    between atoms: _239  and  _240
REMARK  101  A    between atoms: _239  and  _242
REMARK  102  A    between atoms: _242  and  _243
REMARK  103  A    between atoms: _246  and  _248
REMARK  104  A    between atoms: _248  and  _249
REMARK  105  A    between atoms: _248  and  _251
REMARK  106  A    between atoms: _251  and  _252
REMARK  107  A    between atoms: _255  and  _257
REMARK  108  A    between atoms: _257  and  _258
REMARK  109  A    between atoms: _257  and  _260
REMARK  110  A    between atoms: _260  and  _261
REMARK  111  A    between atoms: _264  and  _266
REMARK  112  A    between atoms: _266  and  _267
REMARK  113  A    between atoms: _266  and  _269
REMARK  114  A    between atoms: _269  and  _270
REMARK  115  A    between atoms: _275  and  _277
REMARK  116  A    between atoms: _277  and  _278
REMARK  117  A    between atoms: _277  and  _280
REMARK  118  A    between atoms: _280  and  _281
REMARK  119  A    between atoms: _284  and  _286
REMARK  120  A    between atoms: _286  and  _287
REMARK  121  A    between atoms: _286  and  _289
REMARK  122  A    between atoms: _289  and  _290
REMARK  123  A    between atoms: _296  and  _298
REMARK  124  A    between atoms: _298  and  _299
REMARK  125  A    between atoms: _298  and  _301
REMARK  126  A    between atoms: _301  and  _302
REMARK  127  A    between atoms: _304  and  _306
REMARK  128  A    between atoms: _306  and  _307
REMARK  129  A    between atoms: _310  and  _312
REMARK  130  A    between atoms: _312  and  _313
REMARK  131  A    between atoms: _312  and  _315
REMARK  132  A    between atoms: _315  and  _316
REMARK  133  A    between atoms: _321  and  _323
REMARK  134  A    between atoms: _323  and  _324
REMARK  135  A    between atoms: _323  and  _326
REMARK  136  A    between atoms: _326  and  _327
REMARK  137  A    between atoms: _327  and  _328
REMARK  138  A    between atoms: _328  and  _329
REMARK  139  A    between atoms: _338  and  _340
REMARK  140  A    between atoms: _340  and  _341
REMARK  141  A    between atoms: _340  and  _343
REMARK  142  A    between atoms: _343  and  _344
REMARK  143  A    between atoms: _347  and  _349
REMARK  144  A    between atoms: _349  and  _350
REMARK  145  A    between atoms: _349  and  _352
REMARK  146  A    between atoms: _352  and  _353
REMARK  147  A    between atoms: _353  and  _354
REMARK  148  A    between atoms: _354  and  _355
REMARK  149  A    between atoms: _364  and  _366
REMARK  150  A    between atoms: _366  and  _367
REMARK  151  A    between atoms: _366  and  _369
REMARK  152  A    between atoms: _369  and  _370
REMARK  153  A    between atoms: _375  and  _376
REMARK  154  A    between atoms: _378  and  _380
REMARK  155  A    between atoms: _380  and  _381
REMARK  156  A    between atoms: _380  and  _383
REMARK  157  A    between atoms: _386  and  _388
REMARK  158  A    between atoms: _388  and  _389
REMARK  159  A    between atoms: _388  and  _391
REMARK  160  A    between atoms: _391  and  _392
REMARK  161  A    between atoms: _397  and  _398
REMARK  162  A    between atoms: _400  and  _402
REMARK  163  A    between atoms: _402  and  _403
REMARK  164  A    between atoms: _402  and  _405
REMARK  165  A    between atoms: _405  and  _406
REMARK  166  A    between atoms: _408  and  _410
REMARK  167  A    between atoms: _410  and  _411
REMARK  168  A    between atoms: _413  and  _415
REMARK  169  A    between atoms: _415  and  _416
REMARK  170  A    between atoms: _415  and  _418
REMARK  171  A    between atoms: _421  and  _423
REMARK  172  A    between atoms: _423  and  _424
REMARK  173  A    between atoms: _427  and  _429
REMARK  174  A    between atoms: _429  and  _430
REMARK  175  A    between atoms: _429  and  _432
REMARK  176  A    between atoms: _432  and  _433
REMARK  177  A    between atoms: _438  and  _439
REMARK  178  A    between atoms: _441  and  _443
REMARK  179  A    between atoms: _443  and  _444
REMARK  180  A    between atoms: _443  and  _446
REMARK  181  A    between atoms: _446  and  _447
REMARK  182  A    between atoms: _449  and  _451
REMARK  183  A    between atoms: _451  and  _452
REMARK  184  A    between atoms: _455  and  _457
REMARK  185  A    between atoms: _457  and  _458
REMARK  186  A    between atoms: _461  and  _463
REMARK  187  A    between atoms: _463  and  _464
REMARK  188  A    between atoms: _463  and  _466
REMARK  189  A    between atoms: _466  and  _467
REMARK  190  A    between atoms: _467  and  _468
REMARK  191  A    between atoms: _468  and  _469
REMARK  192  A    between atoms: _469  and  _470
REMARK  193  A    between atoms: _474  and  _476
REMARK  194  A    between atoms: _476  and  _477
REMARK  195  A    between atoms: _476  and  _479
REMARK  196  A    between atoms: _479  and  _480
REMARK  197  A    between atoms: _483  and  _485
REMARK  198  A    between atoms: _485  and  _486
REMARK  199  A    between atoms: _485  and  _488
REMARK  200  A    between atoms: _488  and  _489
REMARK  201  A    between atoms: _492  and  _494
REMARK  202  A    between atoms: _494  and  _495
REMARK  203  A    between atoms: _494  and  _497
REMARK  204  A    between atoms: _497  and  _498
REMARK  205  A    between atoms: _501  and  _503
REMARK  206  A    between atoms: _503  and  _504
REMARK  207  A    between atoms: _503  and  _506
REMARK  208  A    between atoms: _506  and  _507
REMARK  209  A    between atoms: _512  and  _514
REMARK  210  A    between atoms: _514  and  _515
REMARK  211  A    between atoms: _514  and  _517
REMARK  212  A    between atoms: _517  and  _518
REMARK  213  A    between atoms: _523  and  _525
REMARK  214  A    between atoms: _525  and  _526
REMARK  215  A    between atoms: _529  and  _531
REMARK  216  A    between atoms: _531  and  _532
REMARK  217  A    between atoms: _531  and  _534
REMARK  218  A    between atoms: _534  and  _535
REMARK  219  A    between atoms: _535  and  _536
REMARK  220  A    between atoms: _539  and  _541
REMARK  221  A    between atoms: _541  and  _542
REMARK  222  A    between atoms: _541  and  _544
REMARK  223  A    between atoms: _544  and  _545
REMARK  224  A    between atoms: _545  and  _546
REMARK  225  A    between atoms: _546  and  _547
REMARK  226  A    between atoms: _547  and  _548
REMARK  227  A    between atoms: _552  and  _554
REMARK  228  A    between atoms: _554  and  _555
REMARK  229  A    between atoms: _554  and  _557
REMARK  230  A    between atoms: _557  and  _558
REMARK  231  A    between atoms: _560  and  _562
REMARK  232  A    between atoms: _562  and  _563
REMARK  233  A    between atoms: _565  and  _567
REMARK  234  A    between atoms: _567  and  _568
REMARK  235  A    between atoms: _567  and  _570
REMARK  236  A    between atoms: _570  and  _571
REMARK  237  A    between atoms: _574  and  _576
REMARK  238  A    between atoms: _576  and  _577
REMARK  239  A    between atoms: _576  and  _579
REMARK  240  A    between atoms: _579  and  _580
REMARK  241  A    between atoms: _580  and  _581
REMARK  242  A    between atoms: _584  and  _586
REMARK  243  A    between atoms: _586  and  _587
REMARK  244  A    between atoms: _586  and  _589
REMARK  245  A    between atoms: _589  and  _590
REMARK  246  A    between atoms: _590  and  _591
REMARK  247  A    between atoms: _591  and  _592
REMARK  248  A    between atoms: _601  and  _603
REMARK  249  A    between atoms: _603  and  _604
REMARK  250  A    between atoms: _603  and  _606
REMARK  251  A    between atoms: _606  and  _607
REMARK  252  A    between atoms: _612  and  _613
REMARK  253  A    between atoms: _615  and  _617
REMARK  254  A    between atoms: _617  and  _618
REMARK  255  A    between atoms: _617  and  _620
REMARK  256  A    between atoms: _620  and  _621
REMARK  257  A    between atoms: _621  and  _622
REMARK  258  A    between atoms: _625  and  _627
REMARK  259  A    between atoms: _627  and  _628
REMARK  260  A    between atoms: _627  and  _630
REMARK  261  A    between atoms: _630  and  _631
REMARK  262  A    between atoms: _634  and  _636
REMARK  263  A    between atoms: _636  and  _637
REMARK  264  A    between atoms: _636  and  _639
REMARK  265  A    between atoms: _639  and  _640
REMARK  266  A    between atoms: _646  and  _648
REMARK  267  A    between atoms: _648  and  _649
REMARK  268  A    between atoms: _648  and  _651
REMARK  269  A    between atoms: _651  and  _652
REMARK  270  A    between atoms: _652  and  _653
REMARK  271  A    between atoms: _658  and  _660
REMARK  272  A    between atoms: _660  and  _661
REMARK  273  A    between atoms: _660  and  _663
REMARK  274  A    between atoms: _666  and  _668
REMARK  275  A    between atoms: _668  and  _669
REMARK  276  A    between atoms: _668  and  _671
REMARK  277  A    between atoms: _671  and  _672
REMARK  278  A    between atoms: _678  and  _680
REMARK  279  A    between atoms: _680  and  _681
REMARK  280  A    between atoms: _680  and  _683
REMARK  281  A    between atoms: _686  and  _688
REMARK  282  A    between atoms: _688  and  _689
REMARK  283  A    between atoms: _688  and  _691
REMARK  284  A    between atoms: _691  and  _692
REMARK  285  A    between atoms: _695  and  _697
REMARK  286  A    between atoms: _697  and  _698
REMARK  287  A    between atoms: _697  and  _700
REMARK  288  A    between atoms: _700  and  _701
REMARK  289  A    between atoms: _706  and  _708
REMARK  290  A    between atoms: _708  and  _709
REMARK  291  A    between atoms: _708  and  _711
REMARK  292  A    between atoms: _711  and  _712
REMARK  293  A    between atoms: _712  and  _713
REMARK  294  A    between atoms: _713  and  _714
REMARK  295  A    between atoms: _714  and  _715
REMARK  296  A    between atoms: _719  and  _721
REMARK  297  A    between atoms: _721  and  _722
REMARK  298  A    between atoms: _724  and  _726
REMARK  299  A    between atoms: _726  and  _727
REMARK  300  A    between atoms: _726  and  _729
REMARK  301  A    between atoms: _729  and  _730
REMARK  302  A    between atoms: _733  and  _735
REMARK  303  A    between atoms: _735  and  _736
REMARK  304  A    between atoms: _735  and  _738
REMARK  305  A    between atoms: _738  and  _739
REMARK  306  A    between atoms: _739  and  _740
REMARK  307  A    between atoms: _745  and  _747
REMARK  308  A    between atoms: _747  and  _748
REMARK  309  A    between atoms: _747  and  _750
REMARK  310  A    between atoms: _750  and  _751
REMARK  311  A    between atoms: _751  and  _752
REMARK  312  A    between atoms: _755  and  _757
REMARK  313  A    between atoms: _757  and  _758
REMARK  314  A    between atoms: _757  and  _760
REMARK  315  A    between atoms: _763  and  _765
REMARK  316  A    between atoms: _765  and  _766
REMARK  317  A    between atoms: _765  and  _768
REMARK  318  A    between atoms: _768  and  _769
REMARK  319  A    between atoms: _769  and  _770
REMARK                            x       y       z     vdW  Elec       q    Type
REMARK                         _______ _______ _______ _____ _____    ______ ____
ROOT
ATOM      1  O   HOH     1      -5.540   4.549 144.653  0.00  0.00    +0.000 OA
ENDROOT
TORSDOF 0
REMARK  Name = ../refined-set-2016/3tmk/3tmk_pocket.pdb
REMARK  319 active torsions:
REMARK  status: ('A' for Active; 'I' for Inactive)
REMARK    1  A    between atoms: _1  and  _3
REMARK    2  A    between atoms: _3  and  _4
REMARK    3  A    between atoms: _3  and  _6
REMARK    4  A    between atoms: _6  and  _7
REMARK    5  A    between atoms: _10  and  _12
REMARK    6  A    between atoms: _12  and  _13
REMARK    7  A    between atoms: _12  and  _15
REMARK    8  A    between atoms: _15  and  _16
REMARK    9  A    between atoms: _16  and  _17
REMARK   10  A    between atoms: _20  and  _22
REMARK   11  A    between atoms: _22  and  _23
REMARK   12  A    between atoms: _25  and  _27
REMARK   13  A    between atoms: _27  and  _28
REMARK   14  A    between atoms: _27  and  _30
REMARK   15  A    between atoms: _30  and  _31
REMARK   16  A    between atoms: _34  and  _36
REMARK   17  A    between atoms: _36  and  _37
REMARK   18  A    between atoms: _36  and  _39
REMARK   19  A    between atoms: _39  and  _40
REMARK   20  A    between atoms: _43  and  _45
REMARK   21  A    between atoms: _45  and  _46
REMARK   22  A    between atoms: _45  and  _48
REMARK   23  A    between atoms: _48  and  _49
REMARK   24  A    between atoms: _49  and  _50
REMARK   25  A    between atoms: _50  and  _51
REMARK   26  A    between atoms: _60  and  _62
REMARK   27  A    between atoms: _62  and  _63
REMARK   28  A    between atoms: _62  and  _65
REMARK   29  A    between atoms: _65  and  _66
REMARK   30  A    between atoms: _69  and  _71
REMARK   31  A    between atoms: _71  and  _72
REMARK   32  A    between atoms: _74  and  _76
REMARK   33  A    between atoms: _76  and  _77
REMARK   34  A    between atoms: _76  and  _79
REMARK   35  A    between atoms: _79  and  _80
REMARK   36  A    between atoms: _80  and  _81
REMARK   37  A    between atoms: _81  and  _82
REMARK   38  A    between atoms: _82  and  _83
REMARK   39  A    between atoms: _87  and  _89
REMARK   40  A    between atoms: _89  and  _90
REMARK   41  A    between atoms: _89  and  _92
REMARK   42  A    between atoms: _92  and  _93
REMARK   43  A    between atoms: _96  and  _98
REMARK   44  A    between atoms: _98  and  _99
REMARK   45  A    between atoms: _98  and  _101
REMARK   46  A    between atoms: _101  and  _102
REMARK   47  A    between atoms: _105  and  _107
REMARK   48  A    between atoms: _107  and  _108
REMARK   49  A    between atoms: _107  and  _110
REMARK   50  A    between atoms: _110  and  _111
REMARK   51  A    between atoms: _111  and  _112
REMARK   52  A    between atoms: _117  and  _119
REMARK   53  A    between atoms: _119  and  _120
REMARK   54  A    between atoms: _119  and  _122
REMARK   55  A    between atoms: _124  and  _126
REMARK   56  A    between atoms: _126  and  _127
REMARK   57  A    between atoms: _126  and  _129
REMARK   58  A    between atoms: _129  and  _130
REMARK   59  A    between atoms: _135  and  _137
REMARK   60  A    between atoms: _137  and  _138
REMARK   61  A    between atoms: _137  and  _140
REMARK   62  A    between atoms: _140  and  _141
REMARK   63  A    between atoms: _144  and  _146
REMARK   64  A    between atoms: _146  and  _147
REMARK   65  A    between atoms: _146  and  _149
REMARK   66  A    between atoms: _149  and  _150
REMARK   67  A    between atoms: _150  and  _151
REMARK   68  A    between atoms: _151  and  _152
REMARK   69  A    between atoms: _152  and  _153
REMARK   70  A    between atoms: _157  and  _159
REMARK   71  A    between atoms: _159  and  _160
REMARK   72  A    between atoms: _159  and  _162
REMARK   73  A    between atoms: _162  and  _163
REMARK   74  A    between atoms: _170  and  _171
REMARK   75  A    between atoms: _176  and  _178
REMARK   76  A    between atoms: _178  and  _179
REMARK   77  A    between atoms: _178  and  _181
REMARK   78  A    between atoms: _181  and  _182
REMARK   79  A    between atoms: _182  and  _183
REMARK   80  A    between atoms: _186  and  _188
REMARK   81  A    between atoms: _188  and  _189
REMARK   82  A    between atoms: _188  and  _191
REMARK   83  A    between atoms: _191  and  _192
REMARK   84  A    between atoms: _192  and  _193
REMARK   85  A    between atoms: _193  and  _194
REMARK   86  A    between atoms: _203  and  _205
REMARK   87  A    between atoms: _205  and  _206
REMARK   88  A    between atoms: _205  and  _208
REMARK   89  A    between atoms: _208  and  _209
REMARK   90  A    between atoms: _212  and  _214
REMARK   91  A    between atoms: _214  and  _215
REMARK   92  A    between atoms: _214  and  _217
REMARK   93  A    between atoms: _217  and  _218
REMARK   94  A    between atoms: _223  and  _225
REMARK   95  A    between atoms: _225  and  _226
REMARK   96  A    between atoms: _225  and  _228
REMARK   97  A    between atoms: _228  and  _229
REMARK   98  A    between atoms: _234  and  _235
REMARK   99  A    between atoms: _237  and  _239
REMARK  100  A    between atoms: _239  and  _240
REMARK  101  A    between atoms: _239  and  _242
REMARK  102  A    between atoms: _242  and  _243
REMARK  103  A    between atoms: _246  and  _248
REMARK  104  A    between atoms: _248  and  _249
REMARK  105  A    between atoms: _248  and  _251
REMARK  106  A    between atoms: _251  and  _252
REMARK  107  A    between atoms: _255  and  _257
REMARK  108  A    between atoms: _257  and  _258
REMARK  109  A    between atoms: _257  and  _260
REMARK  110  A    between atoms: _260  and  _261
REMARK  111  A    between atoms: _264  and  _266
REMARK  112  A    between atoms: _266  and  _267
REMARK  113  A    between atoms: _266  and  _269
REMARK  114  A    between atoms: _269  and  _270
REMARK  115  A    between atoms: _275  and  _277
REMARK  116  A    between atoms: _277  and  _278
REMARK  117  A    between atoms: _277  and  _280
REMARK  118  A    between atoms: _280  and  _281
REMARK  119  A    between atoms: _284  and  _286
REMARK  120  A    between atoms: _286  and  _287
REMARK  121  A    between atoms: _286  and  _289
REMARK  122  A    between atoms: _289  and  _290
REMARK  123  A    between atoms: _296  and  _298
REMARK  124  A    between atoms: _298  and  _299
REMARK  125  A    between atoms: _298  and  _301
REMARK  126  A    between atoms: _301  and  _302
REMARK  127  A    between atoms: _304  and  _306
REMARK  128  A    between atoms: _306  and  _307
REMARK  129  A    between atoms: _310  and  _312
REMARK  130  A    between atoms: _312  and  _313
REMARK  131  A    between atoms: _312  and  _315
REMARK  132  A    between atoms: _315  and  _316
REMARK  133  A    between atoms: _321  and  _323
REMARK  134  A    between atoms: _323  and  _324
REMARK  135  A    between atoms: _323  and  _326
REMARK  136  A    between atoms: _326  and  _327
REMARK  137  A    between atoms: _327  and  _328
REMARK  138  A    between atoms: _328  and  _329
REMARK  139  A    between atoms: _338  and  _340
REMARK  140  A    between atoms: _340  and  _341
REMARK  141  A    between atoms: _340  and  _343
REMARK  142  A    between atoms: _343  and  _344
REMARK  143  A    between atoms: _347  and  _349
REMARK  144  A    between atoms: _349  and  _350
REMARK  145  A    between atoms: _349  and  _352
REMARK  146  A    between atoms: _352  and  _353
REMARK  147  A    between atoms: _353  and  _354
REMARK  148  A    between atoms: _354  and  _355
REMARK  149  A    between atoms: _364  and  _366
REMARK  150  A    between atoms: _366  and  _367
REMARK  151  A    between atoms: _366  and  _369
REMARK  152  A    between atoms: _369  and  _370
REMARK  153  A    between atoms: _375  and  _376
REMARK  154  A    between atoms: _378  and  _380
REMARK  155  A    between atoms: _380  and  _381
REMARK  156  A    between atoms: _380  and  _383
REMARK  157  A    between atoms: _386  and  _388
REMARK  158  A    between atoms: _388  and  _389
REMARK  159  A    between atoms: _388  and  _391
REMARK  160  A    between atoms: _391  and  _392
REMARK  161  A    between atoms: _397  and  _398
REMARK  162  A    between atoms: _400  and  _402
REMARK  163  A    between atoms: _402  and  _403
REMARK  164  A    between atoms: _402  and  _405
REMARK  165  A    between atoms: _405  and  _406
REMARK  166  A    between atoms: _408  and  _410
REMARK  167  A    between atoms: _410  and  _411
REMARK  168  A    between atoms: _413  and  _415
REMARK  169  A    between atoms: _415  and  _416
REMARK  170  A    between atoms: _415  and  _418
REMARK  171  A    between atoms: _421  and  _423
REMARK  172  A    between atoms: _423  and  _424
REMARK  173  A    between atoms: _427  and  _429
REMARK  174  A    between atoms: _429  and  _430
REMARK  175  A    between atoms: _429  and  _432
REMARK  176  A    between atoms: _432  and  _433
REMARK  177  A    between atoms: _438  and  _439
REMARK  178  A    between atoms: _441  and  _443
REMARK  179  A    between atoms: _443  and  _444
REMARK  180  A    between atoms: _443  and  _446
REMARK  181  A    between atoms: _446  and  _447
REMARK  182  A    between atoms: _449  and  _451
REMARK  183  A    between atoms: _451  and  _452
REMARK  184  A    between atoms: _455  and  _457
REMARK  185  A    between atoms: _457  and  _458
REMARK  186  A    between atoms: _461  and  _463
REMARK  187  A    between atoms: _463  and  _464
REMARK  188  A    between atoms: _463  and  _466
REMARK  189  A    between atoms: _466  and  _467
REMARK  190  A    between atoms: _467  and  _468
REMARK  191  A    between atoms: _468  and  _469
REMARK  192  A    between atoms: _469  and  _470
REMARK  193  A    between atoms: _474  and  _476
REMARK  194  A    between atoms: _476  and  _477
REMARK  195  A    between atoms: _476  and  _479
REMARK  196  A    between atoms: _479  and  _480
REMARK  197  A    between atoms: _483  and  _485
REMARK  198  A    between atoms: _485  and  _486
REMARK  199  A    between atoms: _485  and  _488
REMARK  200  A    between atoms: _488  and  _489
REMARK  201  A    between atoms: _492  and  _494
REMARK  202  A    between atoms: _494  and  _495
REMARK  203  A    between atoms: _494  and  _497
REMARK  204  A    between atoms: _497  and  _498
REMARK  205  A    between atoms: _501  and  _503
REMARK  206  A    between atoms: _503  and  _504
REMARK  207  A    between atoms: _503  and  _506
REMARK  208  A    between atoms: _506  and  _507
REMARK  209  A    between atoms: _512  and  _514
REMARK  210  A    between atoms: _514  and  _515
REMARK  211  A    between atoms: _514  and  _517
REMARK  212  A    between atoms: _517  and  _518
REMARK  213  A    between atoms: _523  and  _525
REMARK  214  A    between atoms: _525  and  _526
REMARK  215  A    between atoms: _529  and  _531
REMARK  216  A    between atoms: _531  and  _532
REMARK  217  A    between atoms: _531  and  _534
REMARK  218  A    between atoms: _534  and  _535
REMARK  219  A    between atoms: _535  and  _536
REMARK  220  A    between atoms: _539  and  _541
REMARK  221  A    between atoms: _541  and  _542
REMARK  222  A    between atoms: _541  and  _544
REMARK  223  A    between atoms: _544  and  _545
REMARK  224  A    between atoms: _545  and  _546
REMARK  225  A    between atoms: _546  and  _547
REMARK  226  A    between atoms: _547  and  _548
REMARK  227  A    between atoms: _552  and  _554
REMARK  228  A    between atoms: _554  and  _555
REMARK  229  A    between atoms: _554  and  _557
REMARK  230  A    between atoms: _557  and  _558
REMARK  231  A    between atoms: _560  and  _562
REMARK  232  A    between atoms: _562  and  _563
REMARK  233  A    between atoms: _565  and  _567
REMARK  234  A    between atoms: _567  and  _568
REMARK  235  A    between atoms: _567  and  _570
REMARK  236  A    between atoms: _570  and  _571
REMARK  237  A    between atoms: _574  and  _576
REMARK  238  A    between atoms: _576  and  _577
REMARK  239  A    between atoms: _576  and  _579
REMARK  240  A    between atoms: _579  and  _580
REMARK  241  A    between atoms: _580  and  _581
REMARK  242  A    between atoms: _584  and  _586
REMARK  243  A    between atoms: _586  and  _587
REMARK  244  A    between atoms: _586  and  _589
REMARK  245  A    between atoms: _589  and  _590
REMARK  246  A    between atoms: _590  and  _591
REMARK  247  A    between atoms: _591  and  _592
REMARK  248  A    between atoms: _601  and  _603
REMARK  249  A    between atoms: _603  and  _604
REMARK  250  A    between atoms: _603  and  _606
REMARK  251  A    between atoms: _606  and  _607
REMARK  252  A    between atoms: _612  and  _613
REMARK  253  A    between atoms: _615  and  _617
REMARK  254  A    between atoms: _617  and  _618
REMARK  255  A    between atoms: _617  and  _620
REMARK  256  A    between atoms: _620  and  _621
REMARK  257  A    between atoms: _621  and  _622
REMARK  258  A    between atoms: _625  and  _627
REMARK  259  A    between atoms: _627  and  _628
REMARK  260  A    between atoms: _627  and  _630
REMARK  261  A    between atoms: _630  and  _631
REMARK  262  A    between atoms: _634  and  _636
REMARK  263  A    between atoms: _636  and  _637
REMARK  264  A    between atoms: _636  and  _639
REMARK  265  A    between atoms: _639  and  _640
REMARK  266  A    between atoms: _646  and  _648
REMARK  267  A    between atoms: _648  and  _649
REMARK  268  A    between atoms: _648  and  _651
REMARK  269  A    between atoms: _651  and  _652
REMARK  270  A    between atoms: _652  and  _653
REMARK  271  A    between atoms: _658  and  _660
REMARK  272  A    between atoms: _660  and  _661
REMARK  273  A    between atoms: _660  and  _663
REMARK  274  A    between atoms: _666  and  _668
REMARK  275  A    between atoms: _668  and  _669
REMARK  276  A    between atoms: _668  and  _671
REMARK  277  A    between atoms: _671  and  _672
REMARK  278  A    between atoms: _678  and  _680
REMARK  279  A    between atoms: _680  and  _681
REMARK  280  A    between atoms: _680  and  _683
REMARK  281  A    between atoms: _686  and  _688
REMARK  282  A    between atoms: _688  and  _689
REMARK  283  A    between atoms: _688  and  _691
REMARK  284  A    between atoms: _691  and  _692
REMARK  285  A    between atoms: _695  and  _697
REMARK  286  A    between atoms: _697  and  _698
REMARK  287  A    between atoms: _697  and  _700
REMARK  288  A    between atoms: _700  and  _701
REMARK  289  A    between atoms: _706  and  _708
REMARK  290  A    between atoms: _708  and  _709
REMARK  291  A    between atoms: _708  and  _711
REMARK  292  A    between atoms: _711  and  _712
REMARK  293  A    between atoms: _712  and  _713
REMARK  294  A    between atoms: _713  and  _714
REMARK  295  A    between atoms: _714  and  _715
REMARK  296  A    between atoms: _719  and  _721
REMARK  297  A    between atoms: _721  and  _722
REMARK  298  A    between atoms: _724  and  _726
REMARK  299  A    between atoms: _726  and  _727
REMARK  300  A    between atoms: _726  and  _729
REMARK  301  A    between atoms: _729  and  _730
REMARK  302  A    between atoms: _733  and  _735
REMARK  303  A    between atoms: _735  and  _736
REMARK  304  A    between atoms: _735  and  _738
REMARK  305  A    between atoms: _738  and  _739
REMARK  306  A    between atoms: _739  and  _740
REMARK  307  A    between atoms: _745  and  _747
REMARK  308  A    between atoms: _747  and  _748
REMARK  309  A    between atoms: _747  and  _750
REMARK  310  A    between atoms: _750  and  _751
REMARK  311  A    between atoms: _751  and  _752
REMARK  312  A    between atoms: _755  and  _757
REMARK  313  A    between atoms: _757  and  _758
REMARK  314  A    between atoms: _757  and  _760
REMARK  315  A    between atoms: _763  and  _765
REMARK  316  A    between atoms: _765  and  _766
REMARK  317  A    between atoms: _765  and  _768
REMARK  318  A    between atoms: _768  and  _769
REMARK  319  A    between atoms: _769  and  _770
REMARK                            x       y       z     vdW  Elec       q    Type
REMARK                         _______ _______ _______ _____ _____    ______ ____
ROOT
ATOM      1  O   HOH     1      -2.381   4.666 155.792  0.00  0.00    +0.000 OA
ENDROOT
TORSDOF 0
