REMARK  Name = ../refined-set-2016/4j47/4j47_pocket.pdb
REMARK  110 active torsions:
REMARK  status: ('A' for Active; 'I' for Inactive)
REMARK    1  A    between atoms: _1  and  _3
REMARK    2  A    between atoms: _3  and  _4
REMARK    3  A    between atoms: _3  and  _6
REMARK    4  A    between atoms: _6  and  _7
REMARK    5  A    between atoms: _10  and  _12
REMARK    6  A    between atoms: _12  and  _13
REMARK    7  A    between atoms: _12  and  _15
REMARK    8  A    between atoms: _15  and  _16
REMARK    9  A    between atoms: _19  and  _21
REMARK   10  A    between atoms: _21  and  _22
REMARK   11  A    between atoms: _21  and  _24
REMARK   12  A    between atoms: _24  and  _25
REMARK   13  A    between atoms: _28  and  _30
REMARK   14  A    between atoms: _30  and  _31
REMARK   15  A    between atoms: _30  and  _33
REMARK   16  A    between atoms: _33  and  _34
REMARK   17  A    between atoms: _37  and  _39
REMARK   18  A    between atoms: _39  and  _40
REMARK   19  A    between atoms: _39  and  _42
REMARK   20  A    between atoms: _42  and  _43
REMARK   21  A    between atoms: _46  and  _48
REMARK   22  A    between atoms: _48  and  _49
REMARK   23  A    between atoms: _48  and  _51
REMARK   24  A    between atoms: _51  and  _52
REMARK   25  A    between atoms: _52  and  _53
REMARK   26  A    between atoms: _58  and  _60
REMARK   27  A    between atoms: _60  and  _61
REMARK   28  A    between atoms: _60  and  _63
REMARK   29  A    between atoms: _66  and  _68
REMARK   30  A    between atoms: _68  and  _69
REMARK   31  A    between atoms: _68  and  _71
REMARK   32  A    between atoms: _71  and  _72
REMARK   33  A    between atoms: _72  and  _73
REMARK   34  A    between atoms: _78  and  _80
REMARK   35  A    between atoms: _80  and  _81
REMARK   36  A    between atoms: _83  and  _85
REMARK   37  A    between atoms: _85  and  _86
REMARK   38  A    between atoms: _88  and  _90
REMARK   39  A    between atoms: _90  and  _91
REMARK   40  A    between atoms: _90  and  _93
REMARK   41  A    between atoms: _93  and  _94
REMARK   42  A    between atoms: _94  and  _95
REMARK   43  A    between atoms: _95  and  _96
REMARK   44  A    between atoms: _96  and  _97
REMARK   45  A    between atoms: _101  and  _103
REMARK   46  A    between atoms: _103  and  _104
REMARK   47  A    between atoms: _103  and  _106
REMARK   48  A    between atoms: _106  and  _107
REMARK   49  A    between atoms: _110  and  _112
REMARK   50  A    between atoms: _112  and  _113
REMARK   51  A    between atoms: _112  and  _115
REMARK   52  A    between atoms: _115  and  _116
REMARK   53  A    between atoms: _116  and  _117
REMARK   54  A    between atoms: _117  and  _118
REMARK   55  A    between atoms: _118  and  _119
REMARK   56  A    between atoms: _123  and  _125
REMARK   57  A    between atoms: _125  and  _126
REMARK   58  A    between atoms: _125  and  _128
REMARK   59  A    between atoms: _128  and  _129
REMARK   60  A    between atoms: _134  and  _136
REMARK   61  A    between atoms: _136  and  _137
REMARK   62  A    between atoms: _136  and  _139
REMARK   63  A    between atoms: _139  and  _140
REMARK   64  A    between atoms: _150  and  _152
REMARK   65  A    between atoms: _152  and  _153
REMARK   66  A    between atoms: _152  and  _155
REMARK   67  A    between atoms: _155  and  _156
REMARK   68  A    between atoms: _156  and  _157
REMARK   69  A    between atoms: _161  and  _162
REMARK   70  A    between atoms: _167  and  _169
REMARK   71  A    between atoms: _169  and  _170
REMARK   72  A    between atoms: _172  and  _174
REMARK   73  A    between atoms: _174  and  _175
REMARK   74  A    between atoms: _174  and  _177
REMARK   75  A    between atoms: _177  and  _178
REMARK   76  A    between atoms: _181  and  _183
REMARK   77  A    between atoms: _183  and  _184
REMARK   78  A    between atoms: _183  and  _186
REMARK   79  A    between atoms: _186  and  _187
REMARK   80  A    between atoms: _187  and  _188
REMARK   81  A    between atoms: _188  and  _189
REMARK   82  A    between atoms: _198  and  _200
REMARK   83  A    between atoms: _200  and  _201
REMARK   84  A    between atoms: _204  and  _206
REMARK   85  A    between atoms: _206  and  _207
REMARK   86  A    between atoms: _206  and  _209
REMARK   87  A    between atoms: _209  and  _210
REMARK   88  A    between atoms: _212  and  _214
REMARK   89  A    between atoms: _214  and  _215
REMARK   90  A    between atoms: _214  and  _217
REMARK   91  A    between atoms: _217  and  _218
REMARK   92  A    between atoms: _218  and  _219
REMARK   93  A    between atoms: _222  and  _224
REMARK   94  A    between atoms: _224  and  _225
REMARK   95  A    between atoms: _224  and  _227
REMARK   96  A    between atoms: _227  and  _228
REMARK   97  A    between atoms: _233  and  _235
REMARK   98  A    between atoms: _235  and  _236
REMARK   99  A    between atoms: _235  and  _238
REMARK  100  A    between atoms: _238  and  _239
REMARK  101  A    between atoms: _239  and  _240
REMARK  102  A    between atoms: _240  and  _241
REMARK  103  A    between atoms: _250  and  _252
REMARK  104  A    between atoms: _252  and  _253
REMARK  105  A    between atoms: _252  and  _255
REMARK  106  A    between atoms: _255  and  _256
REMARK  107  A    between atoms: _261  and  _263
REMARK  108  A    between atoms: _263  and  _264
REMARK  109  A    between atoms: _263  and  _266
REMARK  110  A    between atoms: _266  and  _267
REMARK                            x       y       z     vdW  Elec       q    Type
REMARK                         _______ _______ _______ _____ _____    ______ ____
ROOT
ATOM      1  CA  LEU A   1      17.046  44.231  11.425  0.00  0.00    +0.133 C 
ENDROOT
BRANCH   1   2
ATOM      2  N   LEU A   1      18.153  45.176  11.406  0.00  0.00    -0.239 NA
ATOM      3  H   LEU A   1      19.121  44.855  11.609  0.00  0.00    +0.142 HD
ENDBRANCH   1   2
BRANCH   1   4
ATOM      4  C   LEU A   1      16.179  44.504  12.646  0.00  0.00    +0.224 C 
ATOM      5  O   LEU A   1      16.655  44.927  13.686  0.00  0.00    -0.287 OA
ENDBRANCH   1   4
BRANCH   1   6
ATOM      6  CB  LEU A   1      17.542  42.782  11.436  0.00  0.00    +0.025 C 
BRANCH   6   7
ATOM      7  CG  LEU A   1      17.817  42.238  10.035  0.00  0.00    +0.002 C 
ATOM      8  CD2 LEU A   1      17.762  40.730   9.954  0.00  0.00    +0.000 C 
ATOM      9  CD1 LEU A   1      19.148  42.676   9.463  0.00  0.00    +0.000 C 
ENDBRANCH   6   7
ENDBRANCH   1   6
TORSDOF 4
REMARK  Name = ../refined-set-2016/4j47/4j47_pocket.pdb
REMARK  110 active torsions:
REMARK  status: ('A' for Active; 'I' for Inactive)
REMARK    1  A    between atoms: _1  and  _3
REMARK    2  A    between atoms: _3  and  _4
REMARK    3  A    between atoms: _3  and  _6
REMARK    4  A    between atoms: _6  and  _7
REMARK    5  A    between atoms: _10  and  _12
REMARK    6  A    between atoms: _12  and  _13
REMARK    7  A    between atoms: _12  and  _15
REMARK    8  A    between atoms: _15  and  _16
REMARK    9  A    between atoms: _19  and  _21
REMARK   10  A    between atoms: _21  and  _22
REMARK   11  A    between atoms: _21  and  _24
REMARK   12  A    between atoms: _24  and  _25
REMARK   13  A    between atoms: _28  and  _30
REMARK   14  A    between atoms: _30  and  _31
REMARK   15  A    between atoms: _30  and  _33
REMARK   16  A    between atoms: _33  and  _34
REMARK   17  A    between atoms: _37  and  _39
REMARK   18  A    between atoms: _39  and  _40
REMARK   19  A    between atoms: _39  and  _42
REMARK   20  A    between atoms: _42  and  _43
REMARK   21  A    between atoms: _46  and  _48
REMARK   22  A    between atoms: _48  and  _49
REMARK   23  A    between atoms: _48  and  _51
REMARK   24  A    between atoms: _51  and  _52
REMARK   25  A    between atoms: _52  and  _53
REMARK   26  A    between atoms: _58  and  _60
REMARK   27  A    between atoms: _60  and  _61
REMARK   28  A    between atoms: _60  and  _63
REMARK   29  A    between atoms: _66  and  _68
REMARK   30  A    between atoms: _68  and  _69
REMARK   31  A    between atoms: _68  and  _71
REMARK   32  A    between atoms: _71  and  _72
REMARK   33  A    between atoms: _72  and  _73
REMARK   34  A    between atoms: _78  and  _80
REMARK   35  A    between atoms: _80  and  _81
REMARK   36  A    between atoms: _83  and  _85
REMARK   37  A    between atoms: _85  and  _86
REMARK   38  A    between atoms: _88  and  _90
REMARK   39  A    between atoms: _90  and  _91
REMARK   40  A    between atoms: _90  and  _93
REMARK   41  A    between atoms: _93  and  _94
REMARK   42  A    between atoms: _94  and  _95
REMARK   43  A    between atoms: _95  and  _96
REMARK   44  A    between atoms: _96  and  _97
REMARK   45  A    between atoms: _101  and  _103
REMARK   46  A    between atoms: _103  and  _104
REMARK   47  A    between atoms: _103  and  _106
REMARK   48  A    between atoms: _106  and  _107
REMARK   49  A    between atoms: _110  and  _112
REMARK   50  A    between atoms: _112  and  _113
REMARK   51  A    between atoms: _112  and  _115
REMARK   52  A    between atoms: _115  and  _116
REMARK   53  A    between atoms: _116  and  _117
REMARK   54  A    between atoms: _117  and  _118
REMARK   55  A    between atoms: _118  and  _119
REMARK   56  A    between atoms: _123  and  _125
REMARK   57  A    between atoms: _125  and  _126
REMARK   58  A    between atoms: _125  and  _128
REMARK   59  A    between atoms: _128  and  _129
REMARK   60  A    between atoms: _134  and  _136
REMARK   61  A    between atoms: _136  and  _137
REMARK   62  A    between atoms: _136  and  _139
REMARK   63  A    between atoms: _139  and  _140
REMARK   64  A    between atoms: _150  and  _152
REMARK   65  A    between atoms: _152  and  _153
REMARK   66  A    between atoms: _152  and  _155
REMARK   67  A    between atoms: _155  and  _156
REMARK   68  A    between atoms: _156  and  _157
REMARK   69  A    between atoms: _161  and  _162
REMARK   70  A    between atoms: _167  and  _169
REMARK   71  A    between atoms: _169  and  _170
REMARK   72  A    between atoms: _172  and  _174
REMARK   73  A    between atoms: _174  and  _175
REMARK   74  A    between atoms: _174  and  _177
REMARK   75  A    between atoms: _177  and  _178
REMARK   76  A    between atoms: _181  and  _183
REMARK   77  A    between atoms: _183  and  _184
REMARK   78  A    between atoms: _183  and  _186
REMARK   79  A    between atoms: _186  and  _187
REMARK   80  A    between atoms: _187  and  _188
REMARK   81  A    between atoms: _188  and  _189
REMARK   82  A    between atoms: _198  and  _200
REMARK   83  A    between atoms: _200  and  _201
REMARK   84  A    between atoms: _204  and  _206
REMARK   85  A    between atoms: _206  and  _207
REMARK   86  A    between atoms: _206  and  _209
REMARK   87  A    between atoms: _209  and  _210
REMARK   88  A    between atoms: _212  and  _214
REMARK   89  A    between atoms: _214  and  _215
REMARK   90  A    between atoms: _214  and  _217
REMARK   91  A    between atoms: _217  and  _218
REMARK   92  A    between atoms: _218  and  _219
REMARK   93  A    between atoms: _222  and  _224
REMARK   94  A    between atoms: _224  and  _225
REMARK   95  A    between atoms: _224  and  _227
REMARK   96  A    between atoms: _227  and  _228
REMARK   97  A    between atoms: _233  and  _235
REMARK   98  A    between atoms: _235  and  _236
REMARK   99  A    between atoms: _235  and  _238
REMARK  100  A    between atoms: _238  and  _239
REMARK  101  A    between atoms: _239  and  _240
REMARK  102  A    between atoms: _240  and  _241
REMARK  103  A    between atoms: _250  and  _252
REMARK  104  A    between atoms: _252  and  _253
REMARK  105  A    between atoms: _252  and  _255
REMARK  106  A    between atoms: _255  and  _256
REMARK  107  A    between atoms: _261  and  _263
REMARK  108  A    between atoms: _263  and  _264
REMARK  109  A    between atoms: _263  and  _266
REMARK  110  A    between atoms: _266  and  _267
REMARK                            x       y       z     vdW  Elec       q    Type
REMARK                         _______ _______ _______ _____ _____    ______ ____
ROOT
ATOM      1  CA  LEU A   1      16.544  34.454  17.341  0.00  0.00    +0.133 C 
ENDROOT
BRANCH   1   2
ATOM      2  N   LEU A   1      15.316  33.835  16.854  0.00  0.00    -0.239 NA
ATOM      3  H   LEU A   1      14.690  34.379  16.227  0.00  0.00    +0.142 HD
ENDBRANCH   1   2
BRANCH   1   4
ATOM      4  C   LEU A   1      16.267  35.410  18.487  0.00  0.00    +0.224 C 
ATOM      5  O   LEU A   1      15.274  36.139  18.487  0.00  0.00    -0.287 OA
ENDBRANCH   1   4
BRANCH   1   6
ATOM      6  CB  LEU A   1      17.224  35.147  16.163  0.00  0.00    +0.025 C 
BRANCH   6   7
ATOM      7  CG  LEU A   1      17.456  34.286  14.934  0.00  0.00    +0.002 C 
ATOM      8  CD2 LEU A   1      18.469  33.215  15.242  0.00  0.00    +0.000 C 
ATOM      9  CD1 LEU A   1      17.924  35.137  13.765  0.00  0.00    +0.000 C 
ENDBRANCH   6   7
ENDBRANCH   1   6
TORSDOF 4
REMARK  Name = ../refined-set-2016/4j47/4j47_pocket.pdb
REMARK  110 active torsions:
REMARK  status: ('A' for Active; 'I' for Inactive)
REMARK    1  A    between atoms: _1  and  _3
REMARK    2  A    between atoms: _3  and  _4
REMARK    3  A    between atoms: _3  and  _6
REMARK    4  A    between atoms: _6  and  _7
REMARK    5  A    between atoms: _10  and  _12
REMARK    6  A    between atoms: _12  and  _13
REMARK    7  A    between atoms: _12  and  _15
REMARK    8  A    between atoms: _15  and  _16
REMARK    9  A    between atoms: _19  and  _21
REMARK   10  A    between atoms: _21  and  _22
REMARK   11  A    between atoms: _21  and  _24
REMARK   12  A    between atoms: _24  and  _25
REMARK   13  A    between atoms: _28  and  _30
REMARK   14  A    between atoms: _30  and  _31
REMARK   15  A    between atoms: _30  and  _33
REMARK   16  A    between atoms: _33  and  _34
REMARK   17  A    between atoms: _37  and  _39
REMARK   18  A    between atoms: _39  and  _40
REMARK   19  A    between atoms: _39  and  _42
REMARK   20  A    between atoms: _42  and  _43
REMARK   21  A    between atoms: _46  and  _48
REMARK   22  A    between atoms: _48  and  _49
REMARK   23  A    between atoms: _48  and  _51
REMARK   24  A    between atoms: _51  and  _52
REMARK   25  A    between atoms: _52  and  _53
REMARK   26  A    between atoms: _58  and  _60
REMARK   27  A    between atoms: _60  and  _61
REMARK   28  A    between atoms: _60  and  _63
REMARK   29  A    between atoms: _66  and  _68
REMARK   30  A    between atoms: _68  and  _69
REMARK   31  A    between atoms: _68  and  _71
REMARK   32  A    between atoms: _71  and  _72
REMARK   33  A    between atoms: _72  and  _73
REMARK   34  A    between atoms: _78  and  _80
REMARK   35  A    between atoms: _80  and  _81
REMARK   36  A    between atoms: _83  and  _85
REMARK   37  A    between atoms: _85  and  _86
REMARK   38  A    between atoms: _88  and  _90
REMARK   39  A    between atoms: _90  and  _91
REMARK   40  A    between atoms: _90  and  _93
REMARK   41  A    between atoms: _93  and  _94
REMARK   42  A    between atoms: _94  and  _95
REMARK   43  A    between atoms: _95  and  _96
REMARK   44  A    between atoms: _96  and  _97
REMARK   45  A    between atoms: _101  and  _103
REMARK   46  A    between atoms: _103  and  _104
REMARK   47  A    between atoms: _103  and  _106
REMARK   48  A    between atoms: _106  and  _107
REMARK   49  A    between atoms: _110  and  _112
REMARK   50  A    between atoms: _112  and  _113
REMARK   51  A    between atoms: _112  and  _115
REMARK   52  A    between atoms: _115  and  _116
REMARK   53  A    between atoms: _116  and  _117
REMARK   54  A    between atoms: _117  and  _118
REMARK   55  A    between atoms: _118  and  _119
REMARK   56  A    between atoms: _123  and  _125
REMARK   57  A    between atoms: _125  and  _126
REMARK   58  A    between atoms: _125  and  _128
REMARK   59  A    between atoms: _128  and  _129
REMARK   60  A    between atoms: _134  and  _136
REMARK   61  A    between atoms: _136  and  _137
REMARK   62  A    between atoms: _136  and  _139
REMARK   63  A    between atoms: _139  and  _140
REMARK   64  A    between atoms: _150  and  _152
REMARK   65  A    between atoms: _152  and  _153
REMARK   66  A    between atoms: _152  and  _155
REMARK   67  A    between atoms: _155  and  _156
REMARK   68  A    between atoms: _156  and  _157
REMARK   69  A    between atoms: _161  and  _162
REMARK   70  A    between atoms: _167  and  _169
REMARK   71  A    between atoms: _169  and  _170
REMARK   72  A    between atoms: _172  and  _174
REMARK   73  A    between atoms: _174  and  _175
REMARK   74  A    between atoms: _174  and  _177
REMARK   75  A    between atoms: _177  and  _178
REMARK   76  A    between atoms: _181  and  _183
REMARK   77  A    between atoms: _183  and  _184
REMARK   78  A    between atoms: _183  and  _186
REMARK   79  A    between atoms: _186  and  _187
REMARK   80  A    between atoms: _187  and  _188
REMARK   81  A    between atoms: _188  and  _189
REMARK   82  A    between atoms: _198  and  _200
REMARK   83  A    between atoms: _200  and  _201
REMARK   84  A    between atoms: _204  and  _206
REMARK   85  A    between atoms: _206  and  _207
REMARK   86  A    between atoms: _206  and  _209
REMARK   87  A    between atoms: _209  and  _210
REMARK   88  A    between atoms: _212  and  _214
REMARK   89  A    between atoms: _214  and  _215
REMARK   90  A    between atoms: _214  and  _217
REMARK   91  A    between atoms: _217  and  _218
REMARK   92  A    between atoms: _218  and  _219
REMARK   93  A    between atoms: _222  and  _224
REMARK   94  A    between atoms: _224  and  _225
REMARK   95  A    between atoms: _224  and  _227
REMARK   96  A    between atoms: _227  and  _228
REMARK   97  A    between atoms: _233  and  _235
REMARK   98  A    between atoms: _235  and  _236
REMARK   99  A    between atoms: _235  and  _238
REMARK  100  A    between atoms: _238  and  _239
REMARK  101  A    between atoms: _239  and  _240
REMARK  102  A    between atoms: _240  and  _241
REMARK  103  A    between atoms: _250  and  _252
REMARK  104  A    between atoms: _252  and  _253
REMARK  105  A    between atoms: _252  and  _255
REMARK  106  A    between atoms: _255  and  _256
REMARK  107  A    between atoms: _261  and  _263
REMARK  108  A    between atoms: _263  and  _264
REMARK  109  A    between atoms: _263  and  _266
REMARK  110  A    between atoms: _266  and  _267
REMARK                            x       y       z     vdW  Elec       q    Type
REMARK                         _______ _______ _______ _____ _____    ______ ____
ROOT
ATOM      1  CA  THR A   1      22.743  37.806  23.401  0.00  0.00    +0.160 C 
ENDROOT
BRANCH   1   2
ATOM      2  N   THR A   1      21.797  38.298  22.412  0.00  0.00    -0.237 NA
ATOM      3  H   THR A   1      22.142  38.535  21.460  0.00  0.00    +0.142 HD
ENDBRANCH   1   2
BRANCH   1   4
ATOM      4  C   THR A   1      23.261  38.940  24.287  0.00  0.00    +0.227 C 
ATOM      5  O   THR A   1      23.938  38.695  25.263  0.00  0.00    -0.287 OA
ENDBRANCH   1   4
BRANCH   1   6
ATOM      6  CB  THR A   1      23.979  37.181  22.740  0.00  0.00    +0.134 C 
ATOM      7  CG2 THR A   1      23.623  36.034  21.843  0.00  0.00    +0.034 C 
BRANCH   6   8
ATOM      8  OG1 THR A   1      24.700  38.199  22.024  0.00  0.00    -0.383 OA
ATOM      9  HG1 THR A   1      24.113  38.590  21.329  0.00  0.00    +0.210 HD
ENDBRANCH   6   8
ENDBRANCH   1   6
TORSDOF 4
REMARK  Name = ../refined-set-2016/4j47/4j47_pocket.pdb
REMARK  110 active torsions:
REMARK  status: ('A' for Active; 'I' for Inactive)
REMARK    1  A    between atoms: _1  and  _3
REMARK    2  A    between atoms: _3  and  _4
REMARK    3  A    between atoms: _3  and  _6
REMARK    4  A    between atoms: _6  and  _7
REMARK    5  A    between atoms: _10  and  _12
REMARK    6  A    between atoms: _12  and  _13
REMARK    7  A    between atoms: _12  and  _15
REMARK    8  A    between atoms: _15  and  _16
REMARK    9  A    between atoms: _19  and  _21
REMARK   10  A    between atoms: _21  and  _22
REMARK   11  A    between atoms: _21  and  _24
REMARK   12  A    between atoms: _24  and  _25
REMARK   13  A    between atoms: _28  and  _30
REMARK   14  A    between atoms: _30  and  _31
REMARK   15  A    between atoms: _30  and  _33
REMARK   16  A    between atoms: _33  and  _34
REMARK   17  A    between atoms: _37  and  _39
REMARK   18  A    between atoms: _39  and  _40
REMARK   19  A    between atoms: _39  and  _42
REMARK   20  A    between atoms: _42  and  _43
REMARK   21  A    between atoms: _46  and  _48
REMARK   22  A    between atoms: _48  and  _49
REMARK   23  A    between atoms: _48  and  _51
REMARK   24  A    between atoms: _51  and  _52
REMARK   25  A    between atoms: _52  and  _53
REMARK   26  A    between atoms: _58  and  _60
REMARK   27  A    between atoms: _60  and  _61
REMARK   28  A    between atoms: _60  and  _63
REMARK   29  A    between atoms: _66  and  _68
REMARK   30  A    between atoms: _68  and  _69
REMARK   31  A    between atoms: _68  and  _71
REMARK   32  A    between atoms: _71  and  _72
REMARK   33  A    between atoms: _72  and  _73
REMARK   34  A    between atoms: _78  and  _80
REMARK   35  A    between atoms: _80  and  _81
REMARK   36  A    between atoms: _83  and  _85
REMARK   37  A    between atoms: _85  and  _86
REMARK   38  A    between atoms: _88  and  _90
REMARK   39  A    between atoms: _90  and  _91
REMARK   40  A    between atoms: _90  and  _93
REMARK   41  A    between atoms: _93  and  _94
REMARK   42  A    between atoms: _94  and  _95
REMARK   43  A    between atoms: _95  and  _96
REMARK   44  A    between atoms: _96  and  _97
REMARK   45  A    between atoms: _101  and  _103
REMARK   46  A    between atoms: _103  and  _104
REMARK   47  A    between atoms: _103  and  _106
REMARK   48  A    between atoms: _106  and  _107
REMARK   49  A    between atoms: _110  and  _112
REMARK   50  A    between atoms: _112  and  _113
REMARK   51  A    between atoms: _112  and  _115
REMARK   52  A    between atoms: _115  and  _116
REMARK   53  A    between atoms: _116  and  _117
REMARK   54  A    between atoms: _117  and  _118
REMARK   55  A    between atoms: _118  and  _119
REMARK   56  A    between atoms: _123  and  _125
REMARK   57  A    between atoms: _125  and  _126
REMARK   58  A    between atoms: _125  and  _128
REMARK   59  A    between atoms: _128  and  _129
REMARK   60  A    between atoms: _134  and  _136
REMARK   61  A    between atoms: _136  and  _137
REMARK   62  A    between atoms: _136  and  _139
REMARK   63  A    between atoms: _139  and  _140
REMARK   64  A    between atoms: _150  and  _152
REMARK   65  A    between atoms: _152  and  _153
REMARK   66  A    between atoms: _152  and  _155
REMARK   67  A    between atoms: _155  and  _156
REMARK   68  A    between atoms: _156  and  _157
REMARK   69  A    between atoms: _161  and  _162
REMARK   70  A    between atoms: _167  and  _169
REMARK   71  A    between atoms: _169  and  _170
REMARK   72  A    between atoms: _172  and  _174
REMARK   73  A    between atoms: _174  and  _175
REMARK   74  A    between atoms: _174  and  _177
REMARK   75  A    between atoms: _177  and  _178
REMARK   76  A    between atoms: _181  and  _183
REMARK   77  A    between atoms: _183  and  _184
REMARK   78  A    between atoms: _183  and  _186
REMARK   79  A    between atoms: _186  and  _187
REMARK   80  A    between atoms: _187  and  _188
REMARK   81  A    between atoms: _188  and  _189
REMARK   82  A    between atoms: _198  and  _200
REMARK   83  A    between atoms: _200  and  _201
REMARK   84  A    between atoms: _204  and  _206
REMARK   85  A    between atoms: _206  and  _207
REMARK   86  A    between atoms: _206  and  _209
REMARK   87  A    between atoms: _209  and  _210
REMARK   88  A    between atoms: _212  and  _214
REMARK   89  A    between atoms: _214  and  _215
REMARK   90  A    between atoms: _214  and  _217
REMARK   91  A    between atoms: _217  and  _218
REMARK   92  A    between atoms: _218  and  _219
REMARK   93  A    between atoms: _222  and  _224
REMARK   94  A    between atoms: _224  and  _225
REMARK   95  A    between atoms: _224  and  _227
REMARK   96  A    between atoms: _227  and  _228
REMARK   97  A    between atoms: _233  and  _235
REMARK   98  A    between atoms: _235  and  _236
REMARK   99  A    between atoms: _235  and  _238
REMARK  100  A    between atoms: _238  and  _239
REMARK  101  A    between atoms: _239  and  _240
REMARK  102  A    between atoms: _240  and  _241
REMARK  103  A    between atoms: _250  and  _252
REMARK  104  A    between atoms: _252  and  _253
REMARK  105  A    between atoms: _252  and  _255
REMARK  106  A    between atoms: _255  and  _256
REMARK  107  A    between atoms: _261  and  _263
REMARK  108  A    between atoms: _263  and  _264
REMARK  109  A    between atoms: _263  and  _266
REMARK  110  A    between atoms: _266  and  _267
REMARK                            x       y       z     vdW  Elec       q    Type
REMARK                         _______ _______ _______ _____ _____    ______ ____
ROOT
ATOM      1  CA  ILE A   1      26.717  41.715  22.773  0.00  0.00    +0.133 C 
ENDROOT
BRANCH   1   2
ATOM      2  N   ILE A   1      25.388  41.335  23.237  0.00  0.00    -0.239 NA
ATOM      3  H   ILE A   1      24.879  40.589  22.722  0.00  0.00    +0.142 HD
ENDBRANCH   1   2
BRANCH   1   4
ATOM      4  CB  ILE A   1      27.722  40.536  22.852  0.00  0.00    +0.023 C 
ATOM      5  CG2 ILE A   1      29.104  41.035  22.400  0.00  0.00    +0.002 C 
BRANCH   4   6
ATOM      6  CG1 ILE A   1      27.794  39.990  24.277  0.00  0.00    +0.002 C 
ATOM      7  CD1 ILE A   1      28.591  38.712  24.453  0.00  0.00    +0.000 C 
ENDBRANCH   4   6
ENDBRANCH   1   4
BRANCH   1   8
ATOM      8  C   ILE A   1      26.581  42.134  21.332  0.00  0.00    +0.224 C 
ATOM      9  O   ILE A   1      26.133  41.362  20.528  0.00  0.00    -0.287 OA
ENDBRANCH   1   8
TORSDOF 4
REMARK  Name = ../refined-set-2016/4j47/4j47_pocket.pdb
REMARK  110 active torsions:
REMARK  status: ('A' for Active; 'I' for Inactive)
REMARK    1  A    between atoms: _1  and  _3
REMARK    2  A    between atoms: _3  and  _4
REMARK    3  A    between atoms: _3  and  _6
REMARK    4  A    between atoms: _6  and  _7
REMARK    5  A    between atoms: _10  and  _12
REMARK    6  A    between atoms: _12  and  _13
REMARK    7  A    between atoms: _12  and  _15
REMARK    8  A    between atoms: _15  and  _16
REMARK    9  A    between atoms: _19  and  _21
REMARK   10  A    between atoms: _21  and  _22
REMARK   11  A    between atoms: _21  and  _24
REMARK   12  A    between atoms: _24  and  _25
REMARK   13  A    between atoms: _28  and  _30
REMARK   14  A    between atoms: _30  and  _31
REMARK   15  A    between atoms: _30  and  _33
REMARK   16  A    between atoms: _33  and  _34
REMARK   17  A    between atoms: _37  and  _39
REMARK   18  A    between atoms: _39  and  _40
REMARK   19  A    between atoms: _39  and  _42
REMARK   20  A    between atoms: _42  and  _43
REMARK   21  A    between atoms: _46  and  _48
REMARK   22  A    between atoms: _48  and  _49
REMARK   23  A    between atoms: _48  and  _51
REMARK   24  A    between atoms: _51  and  _52
REMARK   25  A    between atoms: _52  and  _53
REMARK   26  A    between atoms: _58  and  _60
REMARK   27  A    between atoms: _60  and  _61
REMARK   28  A    between atoms: _60  and  _63
REMARK   29  A    between atoms: _66  and  _68
REMARK   30  A    between atoms: _68  and  _69
REMARK   31  A    between atoms: _68  and  _71
REMARK   32  A    between atoms: _71  and  _72
REMARK   33  A    between atoms: _72  and  _73
REMARK   34  A    between atoms: _78  and  _80
REMARK   35  A    between atoms: _80  and  _81
REMARK   36  A    between atoms: _83  and  _85
REMARK   37  A    between atoms: _85  and  _86
REMARK   38  A    between atoms: _88  and  _90
REMARK   39  A    between atoms: _90  and  _91
REMARK   40  A    between atoms: _90  and  _93
REMARK   41  A    between atoms: _93  and  _94
REMARK   42  A    between atoms: _94  and  _95
REMARK   43  A    between atoms: _95  and  _96
REMARK   44  A    between atoms: _96  and  _97
REMARK   45  A    between atoms: _101  and  _103
REMARK   46  A    between atoms: _103  and  _104
REMARK   47  A    between atoms: _103  and  _106
REMARK   48  A    between atoms: _106  and  _107
REMARK   49  A    between atoms: _110  and  _112
REMARK   50  A    between atoms: _112  and  _113
REMARK   51  A    between atoms: _112  and  _115
REMARK   52  A    between atoms: _115  and  _116
REMARK   53  A    between atoms: _116  and  _117
REMARK   54  A    between atoms: _117  and  _118
REMARK   55  A    between atoms: _118  and  _119
REMARK   56  A    between atoms: _123  and  _125
REMARK   57  A    between atoms: _125  and  _126
REMARK   58  A    between atoms: _125  and  _128
REMARK   59  A    between atoms: _128  and  _129
REMARK   60  A    between atoms: _134  and  _136
REMARK   61  A    between atoms: _136  and  _137
REMARK   62  A    between atoms: _136  and  _139
REMARK   63  A    between atoms: _139  and  _140
REMARK   64  A    between atoms: _150  and  _152
REMARK   65  A    between atoms: _152  and  _153
REMARK   66  A    between atoms: _152  and  _155
REMARK   67  A    between atoms: _155  and  _156
REMARK   68  A    between atoms: _156  and  _157
REMARK   69  A    between atoms: _161  and  _162
REMARK   70  A    between atoms: _167  and  _169
REMARK   71  A    between atoms: _169  and  _170
REMARK   72  A    between atoms: _172  and  _174
REMARK   73  A    between atoms: _174  and  _175
REMARK   74  A    between atoms: _174  and  _177
REMARK   75  A    between atoms: _177  and  _178
REMARK   76  A    between atoms: _181  and  _183
REMARK   77  A    between atoms: _183  and  _184
REMARK   78  A    between atoms: _183  and  _186
REMARK   79  A    between atoms: _186  and  _187
REMARK   80  A    between atoms: _187  and  _188
REMARK   81  A    between atoms: _188  and  _189
REMARK   82  A    between atoms: _198  and  _200
REMARK   83  A    between atoms: _200  and  _201
REMARK   84  A    between atoms: _204  and  _206
REMARK   85  A    between atoms: _206  and  _207
REMARK   86  A    between atoms: _206  and  _209
REMARK   87  A    between atoms: _209  and  _210
REMARK   88  A    between atoms: _212  and  _214
REMARK   89  A    between atoms: _214  and  _215
REMARK   90  A    between atoms: _214  and  _217
REMARK   91  A    between atoms: _217  and  _218
REMARK   92  A    between atoms: _218  and  _219
REMARK   93  A    between atoms: _222  and  _224
REMARK   94  A    between atoms: _224  and  _225
REMARK   95  A    between atoms: _224  and  _227
REMARK   96  A    between atoms: _227  and  _228
REMARK   97  A    between atoms: _233  and  _235
REMARK   98  A    between atoms: _235  and  _236
REMARK   99  A    between atoms: _235  and  _238
REMARK  100  A    between atoms: _238  and  _239
REMARK  101  A    between atoms: _239  and  _240
REMARK  102  A    between atoms: _240  and  _241
REMARK  103  A    between atoms: _250  and  _252
REMARK  104  A    between atoms: _252  and  _253
REMARK  105  A    between atoms: _252  and  _255
REMARK  106  A    between atoms: _255  and  _256
REMARK  107  A    between atoms: _261  and  _263
REMARK  108  A    between atoms: _263  and  _264
REMARK  109  A    between atoms: _263  and  _266
REMARK  110  A    between atoms: _266  and  _267
REMARK                            x       y       z     vdW  Elec       q    Type
REMARK                         _______ _______ _______ _____ _____    ______ ____
ROOT
ATOM      1  C   GLN A   2      23.611  38.535  18.578  0.00  0.00    +0.241 C 
ATOM      2  O   GLN A   2      23.120  39.004  19.602  0.00  0.00    -0.273 OA
ATOM      3  N   VAL A   3      23.030  37.599  17.830  0.00  0.00    -0.297 N 
ATOM      4  H   VAL A   3      23.471  37.338  16.925  0.00  0.00    +0.150 HD
ENDROOT
BRANCH   3   5
ATOM      5  CA  VAL A   3      21.799  36.926  18.231  0.00  0.00    +0.149 C 
BRANCH   5   6
ATOM      6  C   VAL A   3      22.053  35.440  18.239  0.00  0.00    +0.241 C 
ATOM      7  N   GLN A   4      21.170  34.719  18.922  0.00  0.00    -0.298 N 
ATOM      8  H   GLN A   4      20.382  35.202  19.400  0.00  0.00    +0.150 HD
ATOM      9  O   VAL A   3      23.008  34.947  17.614  0.00  0.00    -0.273 OA
BRANCH   7  10
ATOM     10  CA  GLN A   4      21.278  33.266  19.018  0.00  0.00    +0.137 C 
BRANCH  10  11
ATOM     11  C   GLN A   4      19.916  32.626  18.816  0.00  0.00    +0.227 C 
ATOM     12  O   GLN A   4      18.885  33.189  19.192  0.00  0.00    -0.286 OA
ENDBRANCH  10  11
BRANCH  10  13
ATOM     13  CB  GLN A   4      21.759  32.935  20.411  0.00  0.00    +0.037 C 
BRANCH  13  14
ATOM     14  CG  GLN A   4      22.027  31.434  20.630  0.00  0.00    +0.087 C 
BRANCH  14  15
ATOM     15  CD  GLN A   4      22.911  31.160  21.826  0.00  0.00    +0.219 C 
ATOM     16  OE1 GLN A   4      23.051  32.022  22.685  0.00  0.00    -0.275 OA
ATOM     17  NE2 GLN A   4      23.609  30.027  21.824  0.00  0.00    -0.329 N 
ATOM     18 HE21 GLN A   4      24.307  29.845  22.573  0.00  0.00    +0.145 HD
ATOM     19 HE22 GLN A   4      23.456  29.323  21.074  0.00  0.00    +0.145 HD
ENDBRANCH  14  15
ENDBRANCH  13  14
ENDBRANCH  10  13
ENDBRANCH   7  10
ENDBRANCH   5   6
BRANCH   5  20
ATOM     20  CB  VAL A   3      20.649  37.272  17.299  0.00  0.00    +0.027 C 
ATOM     21  CG2 VAL A   3      20.385  38.790  17.375  0.00  0.00    +0.002 C 
ATOM     22  CG1 VAL A   3      20.895  36.755  15.891  0.00  0.00    +0.002 C 
ENDBRANCH   5  20
ENDBRANCH   3   5
BRANCH   1  23
ATOM     23  CA  GLN A   2      24.927  39.063  18.027  0.00  0.00    +0.149 C 
BRANCH  23  25
ATOM     24  C   ASP A   1      24.327  41.194  16.981  0.00  0.00    +0.239 C 
ATOM     25  N   GLN A   2      24.853  40.521  18.000  0.00  0.00    -0.297 N 
ATOM     26  H   GLN A   2      25.227  41.055  18.811  0.00  0.00    +0.150 HD
ATOM     27  O   ASP A   1      23.731  40.646  16.057  0.00  0.00    -0.274 OA
BRANCH  24  28
ATOM     28  CA  ASP A   1      24.485  42.721  17.022  0.00  0.00    +0.156 C 
BRANCH  28  29
ATOM     29  N   ASP A   1      25.701  43.108  17.723  0.00  0.00    -0.238 NA
ATOM     30  H   ASP A   1      26.619  42.972  17.253  0.00  0.00    +0.142 HD
ENDBRANCH  28  29
BRANCH  28  31
ATOM     31  CB  ASP A   1      24.422  43.332  15.607  0.00  0.00    +0.140 C 
BRANCH  31  32
ATOM     32  CG  ASP A   1      25.445  42.768  14.638  0.00  0.00    +0.367 C 
ATOM     33  OD2 ASP A   1      26.369  42.023  15.039  0.00  0.00    -0.246 OA
ATOM     34  OD1 ASP A   1      25.340  43.081  13.430  0.00  0.00    -0.246 OA
ENDBRANCH  31  32
ENDBRANCH  28  31
ENDBRANCH  24  28
ENDBRANCH  23  25
BRANCH  23  35
ATOM     35  CB  GLN A   2      26.059  38.639  18.936  0.00  0.00    +0.039 C 
BRANCH  35  36
ATOM     36  CG  GLN A   2      26.171  37.160  19.220  0.00  0.00    +0.087 C 
BRANCH  36  37
ATOM     37  CD  GLN A   2      27.356  36.938  20.139  0.00  0.00    +0.219 C 
ATOM     38  NE2 GLN A   2      27.094  36.468  21.339  0.00  0.00    -0.329 N 
ATOM     39 HE21 GLN A   2      27.855  36.385  22.043  0.00  0.00    +0.145 HD
ATOM     40 HE22 GLN A   2      26.125  36.179  21.584  0.00  0.00    +0.145 HD
ATOM     41  OE1 GLN A   2      28.488  37.295  19.795  0.00  0.00    -0.275 OA
ENDBRANCH  36  37
ENDBRANCH  35  36
ENDBRANCH  23  35
ENDBRANCH   1  23
TORSDOF 17
REMARK  Name = ../refined-set-2016/4j47/4j47_pocket.pdb
REMARK  110 active torsions:
REMARK  status: ('A' for Active; 'I' for Inactive)
REMARK    1  A    between atoms: _1  and  _3
REMARK    2  A    between atoms: _3  and  _4
REMARK    3  A    between atoms: _3  and  _6
REMARK    4  A    between atoms: _6  and  _7
REMARK    5  A    between atoms: _10  and  _12
REMARK    6  A    between atoms: _12  and  _13
REMARK    7  A    between atoms: _12  and  _15
REMARK    8  A    between atoms: _15  and  _16
REMARK    9  A    between atoms: _19  and  _21
REMARK   10  A    between atoms: _21  and  _22
REMARK   11  A    between atoms: _21  and  _24
REMARK   12  A    between atoms: _24  and  _25
REMARK   13  A    between atoms: _28  and  _30
REMARK   14  A    between atoms: _30  and  _31
REMARK   15  A    between atoms: _30  and  _33
REMARK   16  A    between atoms: _33  and  _34
REMARK   17  A    between atoms: _37  and  _39
REMARK   18  A    between atoms: _39  and  _40
REMARK   19  A    between atoms: _39  and  _42
REMARK   20  A    between atoms: _42  and  _43
REMARK   21  A    between atoms: _46  and  _48
REMARK   22  A    between atoms: _48  and  _49
REMARK   23  A    between atoms: _48  and  _51
REMARK   24  A    between atoms: _51  and  _52
REMARK   25  A    between atoms: _52  and  _53
REMARK   26  A    between atoms: _58  and  _60
REMARK   27  A    between atoms: _60  and  _61
REMARK   28  A    between atoms: _60  and  _63
REMARK   29  A    between atoms: _66  and  _68
REMARK   30  A    between atoms: _68  and  _69
REMARK   31  A    between atoms: _68  and  _71
REMARK   32  A    between atoms: _71  and  _72
REMARK   33  A    between atoms: _72  and  _73
REMARK   34  A    between atoms: _78  and  _80
REMARK   35  A    between atoms: _80  and  _81
REMARK   36  A    between atoms: _83  and  _85
REMARK   37  A    between atoms: _85  and  _86
REMARK   38  A    between atoms: _88  and  _90
REMARK   39  A    between atoms: _90  and  _91
REMARK   40  A    between atoms: _90  and  _93
REMARK   41  A    between atoms: _93  and  _94
REMARK   42  A    between atoms: _94  and  _95
REMARK   43  A    between atoms: _95  and  _96
REMARK   44  A    between atoms: _96  and  _97
REMARK   45  A    between atoms: _101  and  _103
REMARK   46  A    between atoms: _103  and  _104
REMARK   47  A    between atoms: _103  and  _106
REMARK   48  A    between atoms: _106  and  _107
REMARK   49  A    between atoms: _110  and  _112
REMARK   50  A    between atoms: _112  and  _113
REMARK   51  A    between atoms: _112  and  _115
REMARK   52  A    between atoms: _115  and  _116
REMARK   53  A    between atoms: _116  and  _117
REMARK   54  A    between atoms: _117  and  _118
REMARK   55  A    between atoms: _118  and  _119
REMARK   56  A    between atoms: _123  and  _125
REMARK   57  A    between atoms: _125  and  _126
REMARK   58  A    between atoms: _125  and  _128
REMARK   59  A    between atoms: _128  and  _129
REMARK   60  A    between atoms: _134  and  _136
REMARK   61  A    between atoms: _136  and  _137
REMARK   62  A    between atoms: _136  and  _139
REMARK   63  A    between atoms: _139  and  _140
REMARK   64  A    between atoms: _150  and  _152
REMARK   65  A    between atoms: _152  and  _153
REMARK   66  A    between atoms: _152  and  _155
REMARK   67  A    between atoms: _155  and  _156
REMARK   68  A    between atoms: _156  and  _157
REMARK   69  A    between atoms: _161  and  _162
REMARK   70  A    between atoms: _167  and  _169
REMARK   71  A    between atoms: _169  and  _170
REMARK   72  A    between atoms: _172  and  _174
REMARK   73  A    between atoms: _174  and  _175
REMARK   74  A    between atoms: _174  and  _177
REMARK   75  A    between atoms: _177  and  _178
REMARK   76  A    between atoms: _181  and  _183
REMARK   77  A    between atoms: _183  and  _184
REMARK   78  A    between atoms: _183  and  _186
REMARK   79  A    between atoms: _186  and  _187
REMARK   80  A    between atoms: _187  and  _188
REMARK   81  A    between atoms: _188  and  _189
REMARK   82  A    between atoms: _198  and  _200
REMARK   83  A    between atoms: _200  and  _201
REMARK   84  A    between atoms: _204  and  _206
REMARK   85  A    between atoms: _206  and  _207
REMARK   86  A    between atoms: _206  and  _209
REMARK   87  A    between atoms: _209  and  _210
REMARK   88  A    between atoms: _212  and  _214
REMARK   89  A    between atoms: _214  and  _215
REMARK   90  A    between atoms: _214  and  _217
REMARK   91  A    between atoms: _217  and  _218
REMARK   92  A    between atoms: _218  and  _219
REMARK   93  A    between atoms: _222  and  _224
REMARK   94  A    between atoms: _224  and  _225
REMARK   95  A    between atoms: _224  and  _227
REMARK   96  A    between atoms: _227  and  _228
REMARK   97  A    between atoms: _233  and  _235
REMARK   98  A    between atoms: _235  and  _236
REMARK   99  A    between atoms: _235  and  _238
REMARK  100  A    between atoms: _238  and  _239
REMARK  101  A    between atoms: _239  and  _240
REMARK  102  A    between atoms: _240  and  _241
REMARK  103  A    between atoms: _250  and  _252
REMARK  104  A    between atoms: _252  and  _253
REMARK  105  A    between atoms: _252  and  _255
REMARK  106  A    between atoms: _255  and  _256
REMARK  107  A    between atoms: _261  and  _263
REMARK  108  A    between atoms: _263  and  _264
REMARK  109  A    between atoms: _263  and  _266
REMARK  110  A    between atoms: _266  and  _267
REMARK                            x       y       z     vdW  Elec       q    Type
REMARK                         _______ _______ _______ _____ _____    ______ ____
ROOT
ATOM      1  CA  TRP A   7      24.342  41.645   9.784  0.00  0.00    +0.153 C 
ENDROOT
BRANCH   1   3
ATOM      2  C   ASN A   6      26.640  41.254  10.421  0.00  0.00    +0.241 C 
ATOM      3  N   TRP A   7      25.396  41.562  10.756  0.00  0.00    -0.297 N 
ATOM      4  H   TRP A   7      25.175  41.750  11.755  0.00  0.00    +0.150 HD
ATOM      5  O   ASN A   6      26.951  40.919   9.311  0.00  0.00    -0.273 OA
BRANCH   2   6
ATOM      6  CA  ASN A   6      27.592  41.345  11.582  0.00  0.00    +0.158 C 
BRANCH   6   8
ATOM      7  C   LYS A   5      26.908  39.223  12.644  0.00  0.00    +0.241 C 
ATOM      8  N   ASN A   6      27.139  40.532  12.718  0.00  0.00    -0.297 N 
ATOM      9  H   ASN A   6      26.990  41.006  13.632  0.00  0.00    +0.150 HD
ATOM     10  O   LYS A   5      26.922  38.619  11.581  0.00  0.00    -0.273 OA
BRANCH   7  11
ATOM     11  CA  LYS A   5      26.519  38.575  13.967  0.00  0.00    +0.149 C 
BRANCH  11  14
ATOM     12  C   LEU A   4      25.176  36.594  14.477  0.00  0.00    +0.241 C 
ATOM     13  O   LEU A   4      24.569  37.132  15.386  0.00  0.00    -0.273 OA
ATOM     14  N   LYS A   5      26.135  37.171  13.755  0.00  0.00    -0.297 N 
ATOM     15  H   LYS A   5      26.624  36.616  13.024  0.00  0.00    +0.150 HD
BRANCH  12  16
ATOM     16  CA  LEU A   4      24.853  35.191  14.054  0.00  0.00    +0.149 C 
BRANCH  16  18
ATOM     17  C   LYS A   3      25.194  33.203  15.472  0.00  0.00    +0.241 C 
ATOM     18  N   LEU A   4      24.612  34.379  15.224  0.00  0.00    -0.297 N 
ATOM     19  H   LEU A   4      23.934  34.737  15.926  0.00  0.00    +0.150 HD
ATOM     20  O   LYS A   3      26.023  32.694  14.736  0.00  0.00    -0.273 OA
BRANCH  17  21
ATOM     21  CA  LYS A   3      24.789  32.527  16.780  0.00  0.00    +0.149 C 
BRANCH  21  24
ATOM     22  C   GLY A   2      23.538  30.431  16.749  0.00  0.00    +0.243 C 
ATOM     23  O   GLY A   2      22.514  30.954  17.134  0.00  0.00    -0.273 OA
ATOM     24  N   LYS A   3      24.674  31.093  16.553  0.00  0.00    -0.297 N 
ATOM     25  H   LYS A   3      25.510  30.568  16.226  0.00  0.00    +0.150 HD
BRANCH  22  26
ATOM     26  CA  GLY A   2      23.618  28.948  16.470  0.00  0.00    +0.176 C 
BRANCH  26  29
ATOM     27  C   GLY A   1      22.914  28.188  18.632  0.00  0.00    +0.240 C 
ATOM     28  O   GLY A   1      23.872  28.751  19.166  0.00  0.00    -0.274 OA
ATOM     29  N   GLY A   2      22.713  28.209  17.337  0.00  0.00    -0.295 N 
ATOM     30  H   GLY A   2      21.905  27.697  16.929  0.00  0.00    +0.150 HD
BRANCH  27  31
ATOM     31  CA  GLY A   1      21.939  27.428  19.528  0.00  0.00    +0.169 C 
BRANCH  31  32
ATOM     32  N   GLY A   1      20.851  26.767  18.839  0.00  0.00    -0.236 NA
ATOM     33  H   GLY A   1      19.914  27.219  18.822  0.00  0.00    +0.142 HD
ENDBRANCH  31  32
ENDBRANCH  27  31
ENDBRANCH  26  29
ENDBRANCH  22  26
ENDBRANCH  21  24
BRANCH  21  34
ATOM     34  CB  LYS A   3      25.848  32.848  17.842  0.00  0.00    +0.029 C 
BRANCH  34  35
ATOM     35  CG  LYS A   3      25.469  32.457  19.245  0.00  0.00    +0.000 C 
BRANCH  35  36
ATOM     36  CD  LYS A   3      26.678  32.682  20.184  0.00  0.00    -0.024 C 
BRANCH  36  37
ATOM     37  CE  LYS A   3      26.489  32.011  21.510  0.00  0.00    -0.086 C 
BRANCH  37  38
ATOM     38  NZ  LYS A   3      27.624  32.268  22.426  0.00  0.00    +0.380 N 
ATOM     39  HZ1 LYS A   3      27.453  31.786  23.332  0.00  0.00    -0.089 HD
ATOM     40  HZ2 LYS A   3      27.712  33.292  22.588  0.00  0.00    -0.089 HD
ATOM     41  HZ3 LYS A   3      28.501  31.906  21.999  0.00  0.00    -0.089 HD
ENDBRANCH  37  38
ENDBRANCH  36  37
ENDBRANCH  35  36
ENDBRANCH  34  35
ENDBRANCH  21  34
ENDBRANCH  17  21
ENDBRANCH  16  18
BRANCH  16  42
ATOM     42  CB  LEU A   4      23.626  35.231  13.168  0.00  0.00    +0.029 C 
BRANCH  42  43
ATOM     43  CG  LEU A   4      23.236  33.863  12.613  0.00  0.00    +0.002 C 
ATOM     44  CD2 LEU A   4      21.901  33.933  11.905  0.00  0.00    +0.000 C 
ATOM     45  CD1 LEU A   4      24.355  33.371  11.701  0.00  0.00    +0.000 C 
ENDBRANCH  42  43
ENDBRANCH  16  42
ENDBRANCH  12  16
ENDBRANCH  11  14
BRANCH  11  46
ATOM     46  CB  LYS A   5      27.694  38.670  14.922  0.00  0.00    +0.029 C 
BRANCH  46  47
ATOM     47  CG  LYS A   5      28.967  38.083  14.345  0.00  0.00    +0.000 C 
BRANCH  47  48
ATOM     48  CD  LYS A   5      30.164  38.259  15.270  0.00  0.00    -0.024 C 
BRANCH  48  49
ATOM     49  CE  LYS A   5      31.421  37.655  14.687  0.00  0.00    -0.086 C 
BRANCH  49  50
ATOM     50  NZ  LYS A   5      32.646  38.127  15.389  0.00  0.00    +0.380 N 
ATOM     51  HZ1 LYS A   5      32.593  37.861  16.393  0.00  0.00    -0.089 HD
ATOM     52  HZ2 LYS A   5      32.714  39.161  15.307  0.00  0.00    -0.089 HD
ATOM     53  HZ3 LYS A   5      33.483  37.687  14.956  0.00  0.00    -0.089 HD
ENDBRANCH  49  50
ENDBRANCH  48  49
ENDBRANCH  47  48
ENDBRANCH  46  47
ENDBRANCH  11  46
ENDBRANCH   7  11
ENDBRANCH   6   8
BRANCH   6  54
ATOM     54  CB  ASN A   6      29.021  41.037  11.182  0.00  0.00    +0.114 C 
BRANCH  54  55
ATOM     55  CG  ASN A   6      29.995  41.225  12.321  0.00  0.00    +0.222 C 
ATOM     56  OD1 ASN A   6      29.892  42.144  13.122  0.00  0.00    -0.275 OA
ATOM     57  ND2 ASN A   6      30.981  40.413  12.350  0.00  0.00    -0.329 N 
ATOM     58 HD21 ASN A   6      31.725  40.523  13.069  0.00  0.00    +0.145 HD
ATOM     59 HD22 ASN A   6      31.040  39.642  11.655  0.00  0.00    +0.145 HD
ENDBRANCH  54  55
ENDBRANCH   6  54
ENDBRANCH   2   6
ENDBRANCH   1   3
BRANCH   1  60
ATOM     60  C   TRP A   7      24.645  42.682   8.716  0.00  0.00    +0.241 C 
ATOM     61  O   TRP A   7      25.188  43.722   9.029  0.00  0.00    -0.273 OA
ATOM     62  N   GLU A   8      24.240  42.399   7.490  0.00  0.00    -0.297 N 
ATOM     63  H   GLU A   8      23.729  41.510   7.318  0.00  0.00    +0.150 HD
BRANCH  62  64
ATOM     64  CA  GLU A   8      24.493  43.310   6.361  0.00  0.00    +0.149 C 
BRANCH  64  65
ATOM     65  C   GLU A   8      23.230  43.670   5.662  0.00  0.00    +0.244 C 
ATOM     66  O   GLU A   8      22.253  42.982   5.758  0.00  0.00    -0.273 OA
ATOM     67  N   PRO A   9      23.235  44.798   4.930  0.00  0.00    -0.272 N 
ATOM     68  CD  PRO A   9      24.338  45.741   4.695  0.00  0.00    +0.094 C 
ATOM     69  CG  PRO A   9      23.844  46.551   3.524  0.00  0.00    +0.024 C 
ATOM     70  CB  PRO A   9      22.375  46.541   3.586  0.00  0.00    +0.031 C 
ATOM     71  CA  PRO A   9      22.000  45.204   4.255  0.00  0.00    +0.152 C 
BRANCH  71  72
ATOM     72  C   PRO A   9      21.583  44.124   3.256  0.00  0.00    +0.241 C 
ATOM     73  N   GLY A  10      20.295  43.809   3.235  0.00  0.00    -0.295 N 
ATOM     74  H   GLY A  10      19.629  44.308   3.859  0.00  0.00    +0.150 HD
ATOM     75  O   PRO A   9      22.420  43.510   2.630  0.00  0.00    -0.273 OA
BRANCH  73  76
ATOM     76  CA  GLY A  10      19.819  42.787   2.358  0.00  0.00    +0.176 C 
BRANCH  76  77
ATOM     77  C   GLY A  10      19.657  41.463   3.071  0.00  0.00    +0.243 C 
ATOM     78  N   ASP A  11      20.351  41.276   4.199  0.00  0.00    -0.296 N 
ATOM     79  H   ASP A  11      21.043  41.993   4.498  0.00  0.00    +0.150 HD
ATOM     80  O   GLY A  10      18.947  40.566   2.585  0.00  0.00    -0.273 OA
BRANCH  78  81
ATOM     81  CA  ASP A  11      20.153  40.076   5.022  0.00  0.00    +0.160 C 
BRANCH  81  82
ATOM     82  C   ASP A  11      18.721  40.019   5.522  0.00  0.00    +0.241 C 
ATOM     83  O   ASP A  11      18.152  41.009   5.917  0.00  0.00    -0.273 OA
ATOM     84  N   ARG A  12      18.173  38.830   5.478  0.00  0.00    -0.297 N 
ATOM     85  H   ARG A  12      18.654  38.074   4.949  0.00  0.00    +0.150 HD
BRANCH  84  86
ATOM     86  CA  ARG A  12      16.921  38.532   6.140  0.00  0.00    +0.149 C 
BRANCH  86  87
ATOM     87  C   ARG A  12      17.168  37.507   7.248  0.00  0.00    +0.241 C 
ATOM     88  N   ALA A  13      16.436  37.610   8.333  0.00  0.00    -0.298 N 
ATOM     89  H   ALA A  13      15.677  38.318   8.393  0.00  0.00    +0.150 HD
ATOM     90  O   ARG A  12      18.029  36.636   7.134  0.00  0.00    -0.273 OA
BRANCH  88  91
ATOM     91  CA  ALA A  13      16.705  36.716   9.451  0.00  0.00    +0.137 C 
ATOM     92  CB  ALA A  13      15.836  37.084  10.639  0.00  0.00    +0.030 C 
BRANCH  91  93
ATOM     93  C   ALA A  13      16.537  35.246   9.081  0.00  0.00    +0.227 C 
ATOM     94  O   ALA A  13      17.387  34.398   9.366  0.00  0.00    -0.286 OA
ENDBRANCH  91  93
ENDBRANCH  88  91
ENDBRANCH  86  87
BRANCH  86  95
ATOM     95  CB  ARG A  12      15.927  37.964   5.133  0.00  0.00    +0.033 C 
BRANCH  95  96
ATOM     96  CG  ARG A  12      15.598  38.917   3.979  0.00  0.00    +0.045 C 
BRANCH  96  97
ATOM     97  CD  ARG A  12      14.341  39.692   4.256  0.00  0.00    +0.174 C 
BRANCH  97  98
ATOM     98  NE  ARG A  12      14.508  40.571   5.409  0.00  0.00    -0.265 N 
ATOM     99  HE  ARG A  12      14.227  40.193   6.336  0.00  0.00    +0.259 HD
ATOM    100  CZ  ARG A  12      14.990  41.819   5.383  0.00  0.00    +0.342 C 
ATOM    101  NH2 ARG A  12      15.091  42.503   6.514  0.00  0.00    -0.292 N 
ATOM    102 HH21 ARG A  12      14.797  42.069   7.412  0.00  0.00    +0.255 HD
ATOM    103 HH22 ARG A  12      15.465  43.474   6.503  0.00  0.00    +0.255 HD
ATOM    104  NH1 ARG A  12      15.382  42.383   4.234  0.00  0.00    -0.292 N 
ATOM    105 HH11 ARG A  12      15.754  43.354   4.232  0.00  0.00    +0.255 HD
ATOM    106 HH12 ARG A  12      15.314  41.850   3.343  0.00  0.00    +0.255 HD
ENDBRANCH  97  98
ENDBRANCH  96  97
ENDBRANCH  95  96
ENDBRANCH  86  95
ENDBRANCH  84  86
ENDBRANCH  81  82
BRANCH  81 107
ATOM    107  CB  ASP A  11      21.042  40.121   6.262  0.00  0.00    +0.143 C 
BRANCH 107 108
ATOM    108  CG  ASP A  11      22.460  39.741   5.983  0.00  0.00    +0.367 C 
ATOM    109  OD2 ASP A  11      23.260  39.851   6.955  0.00  0.00    -0.246 OA
ATOM    110  OD1 ASP A  11      22.790  39.354   4.835  0.00  0.00    -0.246 OA
ENDBRANCH 107 108
ENDBRANCH  81 107
ENDBRANCH  78  81
ENDBRANCH  76  77
ENDBRANCH  73  76
ENDBRANCH  71  72
ENDBRANCH  64  65
BRANCH  64 111
ATOM    111  CB  GLU A   8      25.428  42.616   5.410  0.00  0.00    +0.041 C 
BRANCH 111 112
ATOM    112  CG  GLU A   8      26.728  42.444   6.140  0.00  0.00    +0.116 C 
BRANCH 112 113
ATOM    113  CD  GLU A   8      27.857  42.049   5.285  0.00  0.00    +0.365 C 
ATOM    114  OE2 GLU A   8      28.947  42.521   5.633  0.00  0.00    -0.246 OA
ATOM    115  OE1 GLU A   8      27.658  41.222   4.350  0.00  0.00    -0.246 OA
ENDBRANCH 112 113
ENDBRANCH 111 112
ENDBRANCH  64 111
ENDBRANCH  62  64
ENDBRANCH   1  60
BRANCH   1 116
ATOM    116  CB  TRP A   7      23.011  41.974  10.505  0.00  0.00    +0.057 C 
BRANCH 116 117
ATOM    117  CG  TRP A   7      22.572  40.904  11.455  0.00  0.00    -0.002 A 
ATOM    118  CD1 TRP A   7      22.875  40.807  12.773  0.00  0.00    +0.068 A 
ATOM    119  NE1 TRP A   7      22.383  39.641  13.300  0.00  0.00    -0.352 N 
ATOM    120  HE1 TRP A   7      22.494  39.325  14.284  0.00  0.00    +0.166 HD
ATOM    121  CE2 TRP A   7      21.720  38.963  12.312  0.00  0.00    +0.056 A 
ATOM    122  CZ2 TRP A   7      21.004  37.756  12.349  0.00  0.00    +0.017 A 
ATOM    123  CH2 TRP A   7      20.415  37.344  11.190  0.00  0.00    +0.001 A 
ATOM    124  CZ3 TRP A   7      20.491  38.105  10.032  0.00  0.00    +0.000 A 
ATOM    125  CE3 TRP A   7      21.226  39.252   9.971  0.00  0.00    +0.001 A 
ATOM    126  CD2 TRP A   7      21.840  39.723  11.131  0.00  0.00    +0.013 A 
ENDBRANCH 116 117
ENDBRANCH   1 116
TORSDOF 50
REMARK  Name = ../refined-set-2016/4j47/4j47_pocket.pdb
REMARK  110 active torsions:
REMARK  status: ('A' for Active; 'I' for Inactive)
REMARK    1  A    between atoms: _1  and  _3
REMARK    2  A    between atoms: _3  and  _4
REMARK    3  A    between atoms: _3  and  _6
REMARK    4  A    between atoms: _6  and  _7
REMARK    5  A    between atoms: _10  and  _12
REMARK    6  A    between atoms: _12  and  _13
REMARK    7  A    between atoms: _12  and  _15
REMARK    8  A    between atoms: _15  and  _16
REMARK    9  A    between atoms: _19  and  _21
REMARK   10  A    between atoms: _21  and  _22
REMARK   11  A    between atoms: _21  and  _24
REMARK   12  A    between atoms: _24  and  _25
REMARK   13  A    between atoms: _28  and  _30
REMARK   14  A    between atoms: _30  and  _31
REMARK   15  A    between atoms: _30  and  _33
REMARK   16  A    between atoms: _33  and  _34
REMARK   17  A    between atoms: _37  and  _39
REMARK   18  A    between atoms: _39  and  _40
REMARK   19  A    between atoms: _39  and  _42
REMARK   20  A    between atoms: _42  and  _43
REMARK   21  A    between atoms: _46  and  _48
REMARK   22  A    between atoms: _48  and  _49
REMARK   23  A    between atoms: _48  and  _51
REMARK   24  A    between atoms: _51  and  _52
REMARK   25  A    between atoms: _52  and  _53
REMARK   26  A    between atoms: _58  and  _60
REMARK   27  A    between atoms: _60  and  _61
REMARK   28  A    between atoms: _60  and  _63
REMARK   29  A    between atoms: _66  and  _68
REMARK   30  A    between atoms: _68  and  _69
REMARK   31  A    between atoms: _68  and  _71
REMARK   32  A    between atoms: _71  and  _72
REMARK   33  A    between atoms: _72  and  _73
REMARK   34  A    between atoms: _78  and  _80
REMARK   35  A    between atoms: _80  and  _81
REMARK   36  A    between atoms: _83  and  _85
REMARK   37  A    between atoms: _85  and  _86
REMARK   38  A    between atoms: _88  and  _90
REMARK   39  A    between atoms: _90  and  _91
REMARK   40  A    between atoms: _90  and  _93
REMARK   41  A    between atoms: _93  and  _94
REMARK   42  A    between atoms: _94  and  _95
REMARK   43  A    between atoms: _95  and  _96
REMARK   44  A    between atoms: _96  and  _97
REMARK   45  A    between atoms: _101  and  _103
REMARK   46  A    between atoms: _103  and  _104
REMARK   47  A    between atoms: _103  and  _106
REMARK   48  A    between atoms: _106  and  _107
REMARK   49  A    between atoms: _110  and  _112
REMARK   50  A    between atoms: _112  and  _113
REMARK   51  A    between atoms: _112  and  _115
REMARK   52  A    between atoms: _115  and  _116
REMARK   53  A    between atoms: _116  and  _117
REMARK   54  A    between atoms: _117  and  _118
REMARK   55  A    between atoms: _118  and  _119
REMARK   56  A    between atoms: _123  and  _125
REMARK   57  A    between atoms: _125  and  _126
REMARK   58  A    between atoms: _125  and  _128
REMARK   59  A    between atoms: _128  and  _129
REMARK   60  A    between atoms: _134  and  _136
REMARK   61  A    between atoms: _136  and  _137
REMARK   62  A    between atoms: _136  and  _139
REMARK   63  A    between atoms: _139  and  _140
REMARK   64  A    between atoms: _150  and  _152
REMARK   65  A    between atoms: _152  and  _153
REMARK   66  A    between atoms: _152  and  _155
REMARK   67  A    between atoms: _155  and  _156
REMARK   68  A    between atoms: _156  and  _157
REMARK   69  A    between atoms: _161  and  _162
REMARK   70  A    between atoms: _167  and  _169
REMARK   71  A    between atoms: _169  and  _170
REMARK   72  A    between atoms: _172  and  _174
REMARK   73  A    between atoms: _174  and  _175
REMARK   74  A    between atoms: _174  and  _177
REMARK   75  A    between atoms: _177  and  _178
REMARK   76  A    between atoms: _181  and  _183
REMARK   77  A    between atoms: _183  and  _184
REMARK   78  A    between atoms: _183  and  _186
REMARK   79  A    between atoms: _186  and  _187
REMARK   80  A    between atoms: _187  and  _188
REMARK   81  A    between atoms: _188  and  _189
REMARK   82  A    between atoms: _198  and  _200
REMARK   83  A    between atoms: _200  and  _201
REMARK   84  A    between atoms: _204  and  _206
REMARK   85  A    between atoms: _206  and  _207
REMARK   86  A    between atoms: _206  and  _209
REMARK   87  A    between atoms: _209  and  _210
REMARK   88  A    between atoms: _212  and  _214
REMARK   89  A    between atoms: _214  and  _215
REMARK   90  A    between atoms: _214  and  _217
REMARK   91  A    between atoms: _217  and  _218
REMARK   92  A    between atoms: _218  and  _219
REMARK   93  A    between atoms: _222  and  _224
REMARK   94  A    between atoms: _224  and  _225
REMARK   95  A    between atoms: _224  and  _227
REMARK   96  A    between atoms: _227  and  _228
REMARK   97  A    between atoms: _233  and  _235
REMARK   98  A    between atoms: _235  and  _236
REMARK   99  A    between atoms: _235  and  _238
REMARK  100  A    between atoms: _238  and  _239
REMARK  101  A    between atoms: _239  and  _240
REMARK  102  A    between atoms: _240  and  _241
REMARK  103  A    between atoms: _250  and  _252
REMARK  104  A    between atoms: _252  and  _253
REMARK  105  A    between atoms: _252  and  _255
REMARK  106  A    between atoms: _255  and  _256
REMARK  107  A    between atoms: _261  and  _263
REMARK  108  A    between atoms: _263  and  _264
REMARK  109  A    between atoms: _263  and  _266
REMARK  110  A    between atoms: _266  and  _267
REMARK                            x       y       z     vdW  Elec       q    Type
REMARK                         _______ _______ _______ _____ _____    ______ ____
ROOT
ATOM      1  CA  GLU A   2      20.559  33.809   7.173  0.00  0.00    +0.149 C 
ENDROOT
BRANCH   1   3
ATOM      2  C   SER A   1      18.853  33.026   5.665  0.00  0.00    +0.241 C 
ATOM      3  N   GLU A   2      19.273  33.973   6.503  0.00  0.00    -0.297 N 
ATOM      4  H   GLU A   2      18.692  34.818   6.677  0.00  0.00    +0.150 HD
ATOM      5  O   SER A   1      19.525  32.051   5.397  0.00  0.00    -0.274 OA
BRANCH   2   6
ATOM      6  CA  SER A   1      17.425  33.172   5.087  0.00  0.00    +0.174 C 
BRANCH   6   7
ATOM      7  N   SER A   1      16.506  33.717   6.094  0.00  0.00    -0.236 NA
ATOM      8  H   SER A   1      16.101  34.669   5.989  0.00  0.00    +0.142 HD
ENDBRANCH   6   7
BRANCH   6   9
ATOM      9  CB  SER A   1      17.458  33.986   3.796  0.00  0.00    +0.163 C 
BRANCH   9  10
ATOM     10  OG  SER A   1      17.682  35.276   4.101  0.00  0.00    -0.380 OA
ATOM     11  H   SER A   1      17.705  35.812   3.269  0.00  0.00    +0.211 HD
ENDBRANCH   9  10
ENDBRANCH   6   9
ENDBRANCH   2   6
ENDBRANCH   1   3
BRANCH   1  12
ATOM     12  C   GLU A   2      20.545  32.615   8.127  0.00  0.00    +0.241 C 
ATOM     13  N   HIS A   3      19.461  32.452   8.899  0.00  0.00    -0.298 N 
ATOM     14  H   HIS A   3      18.673  33.128   8.839  0.00  0.00    +0.150 HD
ATOM     15  O   GLU A   2      21.522  31.846   8.190  0.00  0.00    -0.273 OA
BRANCH  13  16
ATOM     16  CA  HIS A   3      19.387  31.324   9.825  0.00  0.00    +0.143 C 
BRANCH  16  17
ATOM     17  C   HIS A   3      19.460  30.017   9.031  0.00  0.00    +0.227 C 
ATOM     18  O   HIS A   3      20.190  29.095   9.411  0.00  0.00    -0.286 OA
ENDBRANCH  16  17
BRANCH  16  19
ATOM     19  CB  HIS A   3      18.059  31.451  10.529  0.00  0.00    +0.075 C 
BRANCH  19  20
ATOM     20  CG  HIS A   3      17.907  30.573  11.733  0.00  0.00    +0.082 A 
ATOM     21  ND1 HIS A   3      16.827  30.711  12.584  0.00  0.00    -0.227 NA
ATOM     22  CE1 HIS A   3      16.932  29.817  13.551  0.00  0.00    +0.199 A 
ATOM     23  NE2 HIS A   3      18.015  29.101  13.375  0.00  0.00    -0.221 NA
ATOM     24  CD2 HIS A   3      18.627  29.522  12.203  0.00  0.00    +0.115 A 
ENDBRANCH  19  20
ENDBRANCH  16  19
ENDBRANCH  13  16
ENDBRANCH   1  12
BRANCH   1  25
ATOM     25  CB  GLU A   2      20.979  35.075   7.921  0.00  0.00    +0.041 C 
BRANCH  25  26
ATOM     26  CG  GLU A   2      21.416  36.239   7.007  0.00  0.00    +0.116 C 
BRANCH  26  27
ATOM     27  CD  GLU A   2      22.548  35.825   6.115  0.00  0.00    +0.365 C 
ATOM     28  OE2 GLU A   2      23.655  35.646   6.611  0.00  0.00    -0.246 OA
ATOM     29  OE1 GLU A   2      22.260  35.632   4.926  0.00  0.00    -0.246 OA
ENDBRANCH  26  27
ENDBRANCH  25  26
ENDBRANCH   1  25
TORSDOF 13
REMARK  Name = ../refined-set-2016/4j47/4j47_pocket.pdb
REMARK  110 active torsions:
REMARK  status: ('A' for Active; 'I' for Inactive)
REMARK    1  A    between atoms: _1  and  _3
REMARK    2  A    between atoms: _3  and  _4
REMARK    3  A    between atoms: _3  and  _6
REMARK    4  A    between atoms: _6  and  _7
REMARK    5  A    between atoms: _10  and  _12
REMARK    6  A    between atoms: _12  and  _13
REMARK    7  A    between atoms: _12  and  _15
REMARK    8  A    between atoms: _15  and  _16
REMARK    9  A    between atoms: _19  and  _21
REMARK   10  A    between atoms: _21  and  _22
REMARK   11  A    between atoms: _21  and  _24
REMARK   12  A    between atoms: _24  and  _25
REMARK   13  A    between atoms: _28  and  _30
REMARK   14  A    between atoms: _30  and  _31
REMARK   15  A    between atoms: _30  and  _33
REMARK   16  A    between atoms: _33  and  _34
REMARK   17  A    between atoms: _37  and  _39
REMARK   18  A    between atoms: _39  and  _40
REMARK   19  A    between atoms: _39  and  _42
REMARK   20  A    between atoms: _42  and  _43
REMARK   21  A    between atoms: _46  and  _48
REMARK   22  A    between atoms: _48  and  _49
REMARK   23  A    between atoms: _48  and  _51
REMARK   24  A    between atoms: _51  and  _52
REMARK   25  A    between atoms: _52  and  _53
REMARK   26  A    between atoms: _58  and  _60
REMARK   27  A    between atoms: _60  and  _61
REMARK   28  A    between atoms: _60  and  _63
REMARK   29  A    between atoms: _66  and  _68
REMARK   30  A    between atoms: _68  and  _69
REMARK   31  A    between atoms: _68  and  _71
REMARK   32  A    between atoms: _71  and  _72
REMARK   33  A    between atoms: _72  and  _73
REMARK   34  A    between atoms: _78  and  _80
REMARK   35  A    between atoms: _80  and  _81
REMARK   36  A    between atoms: _83  and  _85
REMARK   37  A    between atoms: _85  and  _86
REMARK   38  A    between atoms: _88  and  _90
REMARK   39  A    between atoms: _90  and  _91
REMARK   40  A    between atoms: _90  and  _93
REMARK   41  A    between atoms: _93  and  _94
REMARK   42  A    between atoms: _94  and  _95
REMARK   43  A    between atoms: _95  and  _96
REMARK   44  A    between atoms: _96  and  _97
REMARK   45  A    between atoms: _101  and  _103
REMARK   46  A    between atoms: _103  and  _104
REMARK   47  A    between atoms: _103  and  _106
REMARK   48  A    between atoms: _106  and  _107
REMARK   49  A    between atoms: _110  and  _112
REMARK   50  A    between atoms: _112  and  _113
REMARK   51  A    between atoms: _112  and  _115
REMARK   52  A    between atoms: _115  and  _116
REMARK   53  A    between atoms: _116  and  _117
REMARK   54  A    between atoms: _117  and  _118
REMARK   55  A    between atoms: _118  and  _119
REMARK   56  A    between atoms: _123  and  _125
REMARK   57  A    between atoms: _125  and  _126
REMARK   58  A    between atoms: _125  and  _128
REMARK   59  A    between atoms: _128  and  _129
REMARK   60  A    between atoms: _134  and  _136
REMARK   61  A    between atoms: _136  and  _137
REMARK   62  A    between atoms: _136  and  _139
REMARK   63  A    between atoms: _139  and  _140
REMARK   64  A    between atoms: _150  and  _152
REMARK   65  A    between atoms: _152  and  _153
REMARK   66  A    between atoms: _152  and  _155
REMARK   67  A    between atoms: _155  and  _156
REMARK   68  A    between atoms: _156  and  _157
REMARK   69  A    between atoms: _161  and  _162
REMARK   70  A    between atoms: _167  and  _169
REMARK   71  A    between atoms: _169  and  _170
REMARK   72  A    between atoms: _172  and  _174
REMARK   73  A    between atoms: _174  and  _175
REMARK   74  A    between atoms: _174  and  _177
REMARK   75  A    between atoms: _177  and  _178
REMARK   76  A    between atoms: _181  and  _183
REMARK   77  A    between atoms: _183  and  _184
REMARK   78  A    between atoms: _183  and  _186
REMARK   79  A    between atoms: _186  and  _187
REMARK   80  A    between atoms: _187  and  _188
REMARK   81  A    between atoms: _188  and  _189
REMARK   82  A    between atoms: _198  and  _200
REMARK   83  A    between atoms: _200  and  _201
REMARK   84  A    between atoms: _204  and  _206
REMARK   85  A    between atoms: _206  and  _207
REMARK   86  A    between atoms: _206  and  _209
REMARK   87  A    between atoms: _209  and  _210
REMARK   88  A    between atoms: _212  and  _214
REMARK   89  A    between atoms: _214  and  _215
REMARK   90  A    between atoms: _214  and  _217
REMARK   91  A    between atoms: _217  and  _218
REMARK   92  A    between atoms: _218  and  _219
REMARK   93  A    between atoms: _222  and  _224
REMARK   94  A    between atoms: _224  and  _225
REMARK   95  A    between atoms: _224  and  _227
REMARK   96  A    between atoms: _227  and  _228
REMARK   97  A    between atoms: _233  and  _235
REMARK   98  A    between atoms: _235  and  _236
REMARK   99  A    between atoms: _235  and  _238
REMARK  100  A    between atoms: _238  and  _239
REMARK  101  A    between atoms: _239  and  _240
REMARK  102  A    between atoms: _240  and  _241
REMARK  103  A    between atoms: _250  and  _252
REMARK  104  A    between atoms: _252  and  _253
REMARK  105  A    between atoms: _252  and  _255
REMARK  106  A    between atoms: _255  and  _256
REMARK  107  A    between atoms: _261  and  _263
REMARK  108  A    between atoms: _263  and  _264
REMARK  109  A    between atoms: _263  and  _266
REMARK  110  A    between atoms: _266  and  _267
REMARK                            x       y       z     vdW  Elec       q    Type
REMARK                         _______ _______ _______ _____ _____    ______ ____
ROOT
ATOM      1  CA  HIS A   2      24.151  28.988   8.242  0.00  0.00    +0.155 C 
ENDROOT
BRANCH   1   3
ATOM      2  C   ARG A   1      23.000  28.840   6.133  0.00  0.00    +0.238 C 
ATOM      3  N   HIS A   2      23.067  29.354   7.362  0.00  0.00    -0.297 N 
ATOM      4  H   HIS A   2      22.337  30.020   7.687  0.00  0.00    +0.150 HD
ATOM      5  O   ARG A   1      23.817  27.968   5.741  0.00  0.00    -0.274 OA
BRANCH   2   6
ATOM      6  CA  ARG A   1      21.933  29.378   5.224  0.00  0.00    +0.145 C 
BRANCH   6   7
ATOM      7  N   ARG A   1      20.654  29.546   5.948  0.00  0.00    -0.238 NA
ATOM      8  H   ARG A   1      20.250  30.494   6.086  0.00  0.00    +0.142 HD
ENDBRANCH   6   7
BRANCH   6   9
ATOM      9  CB  ARG A   1      22.375  30.779   4.722  0.00  0.00    +0.030 C 
BRANCH   9  10
ATOM     10  CG  ARG A   1      23.687  30.849   3.986  0.00  0.00    +0.045 C 
BRANCH  10  11
ATOM     11  CD  ARG A   1      23.644  32.142   3.178  0.00  0.00    +0.174 C 
BRANCH  11  12
ATOM     12  NE  ARG A   1      24.081  33.324   3.921  0.00  0.00    -0.265 N 
ATOM     13  HE  ARG A   1      23.366  33.885   4.427  0.00  0.00    +0.259 HD
ATOM     14  CZ  ARG A   1      25.356  33.715   3.978  0.00  0.00    +0.342 C 
ATOM     15  NH2 ARG A   1      25.706  34.825   4.610  0.00  0.00    -0.292 N 
ATOM     16 HH21 ARG A   1      24.982  35.410   5.074  0.00  0.00    +0.255 HD
ATOM     17 HH22 ARG A   1      26.705  35.112   4.643  0.00  0.00    +0.255 HD
ATOM     18  NH1 ARG A   1      26.298  32.973   3.439  0.00  0.00    -0.292 N 
ATOM     19 HH11 ARG A   1      27.291  33.279   3.484  0.00  0.00    +0.255 HD
ATOM     20 HH12 ARG A   1      26.050  32.080   2.967  0.00  0.00    +0.255 HD
ENDBRANCH  11  12
ENDBRANCH  10  11
ENDBRANCH   9  10
ENDBRANCH   6   9
ENDBRANCH   2   6
ENDBRANCH   1   3
BRANCH   1  21
ATOM     21  C   HIS A   2      23.869  27.760   9.069  0.00  0.00    +0.241 C 
ATOM     22  N   PHE A   3      22.603  27.552   9.426  0.00  0.00    -0.298 N 
ATOM     23  H   PHE A   3      21.868  28.193   9.066  0.00  0.00    +0.150 HD
ATOM     24  O   HIS A   2      24.782  27.015   9.381  0.00  0.00    -0.273 OA
BRANCH  22  25
ATOM     25  CA  PHE A   3      22.207  26.443  10.315  0.00  0.00    +0.141 C 
BRANCH  25  26
ATOM     26  C   PHE A   3      21.058  25.679   9.679  0.00  0.00    +0.227 C 
ATOM     27  O   PHE A   3      19.978  25.601  10.241  0.00  0.00    -0.286 OA
ENDBRANCH  25  26
BRANCH  25  28
ATOM     28  CB  PHE A   3      21.836  26.983  11.689  0.00  0.00    +0.054 C 
BRANCH  28  29
ATOM     29  CG  PHE A   3      22.873  27.947  12.255  0.00  0.00    -0.020 A 
ATOM     30  CD2 PHE A   3      22.552  29.241  12.557  0.00  0.00    -0.004 A 
ATOM     31  CE2 PHE A   3      23.527  30.148  13.032  0.00  0.00    -0.000 A 
ATOM     32  CZ  PHE A   3      24.815  29.734  13.238  0.00  0.00    -0.000 A 
ATOM     33  CE1 PHE A   3      25.139  28.442  12.960  0.00  0.00    -0.000 A 
ATOM     34  CD1 PHE A   3      24.174  27.557  12.471  0.00  0.00    -0.004 A 
ENDBRANCH  28  29
ENDBRANCH  25  28
ENDBRANCH  22  25
ENDBRANCH   1  21
BRANCH   1  35
ATOM     35  CB  HIS A   2      24.502  30.147   9.141  0.00  0.00    +0.076 C 
BRANCH  35  36
ATOM     36  CG  HIS A   2      25.047  31.325   8.388  0.00  0.00    +0.082 A 
ATOM     37  CD2 HIS A   2      24.544  32.555   8.184  0.00  0.00    +0.115 A 
ATOM     38  NE2 HIS A   2      25.451  33.244   7.407  0.00  0.00    -0.221 NA
ATOM     39  CE1 HIS A   2      26.455  32.445   7.130  0.00  0.00    +0.199 A 
ATOM     40  ND1 HIS A   2      26.214  31.259   7.663  0.00  0.00    -0.227 NA
ENDBRANCH  35  36
ENDBRANCH   1  35
TORSDOF 14
REMARK  Name = ../refined-set-2016/4j47/4j47_pocket.pdb
REMARK  110 active torsions:
REMARK  status: ('A' for Active; 'I' for Inactive)
REMARK    1  A    between atoms: _1  and  _3
REMARK    2  A    between atoms: _3  and  _4
REMARK    3  A    between atoms: _3  and  _6
REMARK    4  A    between atoms: _6  and  _7
REMARK    5  A    between atoms: _10  and  _12
REMARK    6  A    between atoms: _12  and  _13
REMARK    7  A    between atoms: _12  and  _15
REMARK    8  A    between atoms: _15  and  _16
REMARK    9  A    between atoms: _19  and  _21
REMARK   10  A    between atoms: _21  and  _22
REMARK   11  A    between atoms: _21  and  _24
REMARK   12  A    between atoms: _24  and  _25
REMARK   13  A    between atoms: _28  and  _30
REMARK   14  A    between atoms: _30  and  _31
REMARK   15  A    between atoms: _30  and  _33
REMARK   16  A    between atoms: _33  and  _34
REMARK   17  A    between atoms: _37  and  _39
REMARK   18  A    between atoms: _39  and  _40
REMARK   19  A    between atoms: _39  and  _42
REMARK   20  A    between atoms: _42  and  _43
REMARK   21  A    between atoms: _46  and  _48
REMARK   22  A    between atoms: _48  and  _49
REMARK   23  A    between atoms: _48  and  _51
REMARK   24  A    between atoms: _51  and  _52
REMARK   25  A    between atoms: _52  and  _53
REMARK   26  A    between atoms: _58  and  _60
REMARK   27  A    between atoms: _60  and  _61
REMARK   28  A    between atoms: _60  and  _63
REMARK   29  A    between atoms: _66  and  _68
REMARK   30  A    between atoms: _68  and  _69
REMARK   31  A    between atoms: _68  and  _71
REMARK   32  A    between atoms: _71  and  _72
REMARK   33  A    between atoms: _72  and  _73
REMARK   34  A    between atoms: _78  and  _80
REMARK   35  A    between atoms: _80  and  _81
REMARK   36  A    between atoms: _83  and  _85
REMARK   37  A    between atoms: _85  and  _86
REMARK   38  A    between atoms: _88  and  _90
REMARK   39  A    between atoms: _90  and  _91
REMARK   40  A    between atoms: _90  and  _93
REMARK   41  A    between atoms: _93  and  _94
REMARK   42  A    between atoms: _94  and  _95
REMARK   43  A    between atoms: _95  and  _96
REMARK   44  A    between atoms: _96  and  _97
REMARK   45  A    between atoms: _101  and  _103
REMARK   46  A    between atoms: _103  and  _104
REMARK   47  A    between atoms: _103  and  _106
REMARK   48  A    between atoms: _106  and  _107
REMARK   49  A    between atoms: _110  and  _112
REMARK   50  A    between atoms: _112  and  _113
REMARK   51  A    between atoms: _112  and  _115
REMARK   52  A    between atoms: _115  and  _116
REMARK   53  A    between atoms: _116  and  _117
REMARK   54  A    between atoms: _117  and  _118
REMARK   55  A    between atoms: _118  and  _119
REMARK   56  A    between atoms: _123  and  _125
REMARK   57  A    between atoms: _125  and  _126
REMARK   58  A    between atoms: _125  and  _128
REMARK   59  A    between atoms: _128  and  _129
REMARK   60  A    between atoms: _134  and  _136
REMARK   61  A    between atoms: _136  and  _137
REMARK   62  A    between atoms: _136  and  _139
REMARK   63  A    between atoms: _139  and  _140
REMARK   64  A    between atoms: _150  and  _152
REMARK   65  A    between atoms: _152  and  _153
REMARK   66  A    between atoms: _152  and  _155
REMARK   67  A    between atoms: _155  and  _156
REMARK   68  A    between atoms: _156  and  _157
REMARK   69  A    between atoms: _161  and  _162
REMARK   70  A    between atoms: _167  and  _169
REMARK   71  A    between atoms: _169  and  _170
REMARK   72  A    between atoms: _172  and  _174
REMARK   73  A    between atoms: _174  and  _175
REMARK   74  A    between atoms: _174  and  _177
REMARK   75  A    between atoms: _177  and  _178
REMARK   76  A    between atoms: _181  and  _183
REMARK   77  A    between atoms: _183  and  _184
REMARK   78  A    between atoms: _183  and  _186
REMARK   79  A    between atoms: _186  and  _187
REMARK   80  A    between atoms: _187  and  _188
REMARK   81  A    between atoms: _188  and  _189
REMARK   82  A    between atoms: _198  and  _200
REMARK   83  A    between atoms: _200  and  _201
REMARK   84  A    between atoms: _204  and  _206
REMARK   85  A    between atoms: _206  and  _207
REMARK   86  A    between atoms: _206  and  _209
REMARK   87  A    between atoms: _209  and  _210
REMARK   88  A    between atoms: _212  and  _214
REMARK   89  A    between atoms: _214  and  _215
REMARK   90  A    between atoms: _214  and  _217
REMARK   91  A    between atoms: _217  and  _218
REMARK   92  A    between atoms: _218  and  _219
REMARK   93  A    between atoms: _222  and  _224
REMARK   94  A    between atoms: _224  and  _225
REMARK   95  A    between atoms: _224  and  _227
REMARK   96  A    between atoms: _227  and  _228
REMARK   97  A    between atoms: _233  and  _235
REMARK   98  A    between atoms: _235  and  _236
REMARK   99  A    between atoms: _235  and  _238
REMARK  100  A    between atoms: _238  and  _239
REMARK  101  A    between atoms: _239  and  _240
REMARK  102  A    between atoms: _240  and  _241
REMARK  103  A    between atoms: _250  and  _252
REMARK  104  A    between atoms: _252  and  _253
REMARK  105  A    between atoms: _252  and  _255
REMARK  106  A    between atoms: _255  and  _256
REMARK  107  A    between atoms: _261  and  _263
REMARK  108  A    between atoms: _263  and  _264
REMARK  109  A    between atoms: _263  and  _266
REMARK  110  A    between atoms: _266  and  _267
REMARK                            x       y       z     vdW  Elec       q    Type
REMARK                         _______ _______ _______ _____ _____    ______ ____
ROOT
ATOM      1  O   HOH     1      20.730  43.813  12.319  0.00  0.00    +0.000 OA
ENDROOT
TORSDOF 0
REMARK  Name = ../refined-set-2016/4j47/4j47_pocket.pdb
REMARK  110 active torsions:
REMARK  status: ('A' for Active; 'I' for Inactive)
REMARK    1  A    between atoms: _1  and  _3
REMARK    2  A    between atoms: _3  and  _4
REMARK    3  A    between atoms: _3  and  _6
REMARK    4  A    between atoms: _6  and  _7
REMARK    5  A    between atoms: _10  and  _12
REMARK    6  A    between atoms: _12  and  _13
REMARK    7  A    between atoms: _12  and  _15
REMARK    8  A    between atoms: _15  and  _16
REMARK    9  A    between atoms: _19  and  _21
REMARK   10  A    between atoms: _21  and  _22
REMARK   11  A    between atoms: _21  and  _24
REMARK   12  A    between atoms: _24  and  _25
REMARK   13  A    between atoms: _28  and  _30
REMARK   14  A    between atoms: _30  and  _31
REMARK   15  A    between atoms: _30  and  _33
REMARK   16  A    between atoms: _33  and  _34
REMARK   17  A    between atoms: _37  and  _39
REMARK   18  A    between atoms: _39  and  _40
REMARK   19  A    between atoms: _39  and  _42
REMARK   20  A    between atoms: _42  and  _43
REMARK   21  A    between atoms: _46  and  _48
REMARK   22  A    between atoms: _48  and  _49
REMARK   23  A    between atoms: _48  and  _51
REMARK   24  A    between atoms: _51  and  _52
REMARK   25  A    between atoms: _52  and  _53
REMARK   26  A    between atoms: _58  and  _60
REMARK   27  A    between atoms: _60  and  _61
REMARK   28  A    between atoms: _60  and  _63
REMARK   29  A    between atoms: _66  and  _68
REMARK   30  A    between atoms: _68  and  _69
REMARK   31  A    between atoms: _68  and  _71
REMARK   32  A    between atoms: _71  and  _72
REMARK   33  A    between atoms: _72  and  _73
REMARK   34  A    between atoms: _78  and  _80
REMARK   35  A    between atoms: _80  and  _81
REMARK   36  A    between atoms: _83  and  _85
REMARK   37  A    between atoms: _85  and  _86
REMARK   38  A    between atoms: _88  and  _90
REMARK   39  A    between atoms: _90  and  _91
REMARK   40  A    between atoms: _90  and  _93
REMARK   41  A    between atoms: _93  and  _94
REMARK   42  A    between atoms: _94  and  _95
REMARK   43  A    between atoms: _95  and  _96
REMARK   44  A    between atoms: _96  and  _97
REMARK   45  A    between atoms: _101  and  _103
REMARK   46  A    between atoms: _103  and  _104
REMARK   47  A    between atoms: _103  and  _106
REMARK   48  A    between atoms: _106  and  _107
REMARK   49  A    between atoms: _110  and  _112
REMARK   50  A    between atoms: _112  and  _113
REMARK   51  A    between atoms: _112  and  _115
REMARK   52  A    between atoms: _115  and  _116
REMARK   53  A    between atoms: _116  and  _117
REMARK   54  A    between atoms: _117  and  _118
REMARK   55  A    between atoms: _118  and  _119
REMARK   56  A    between atoms: _123  and  _125
REMARK   57  A    between atoms: _125  and  _126
REMARK   58  A    between atoms: _125  and  _128
REMARK   59  A    between atoms: _128  and  _129
REMARK   60  A    between atoms: _134  and  _136
REMARK   61  A    between atoms: _136  and  _137
REMARK   62  A    between atoms: _136  and  _139
REMARK   63  A    between atoms: _139  and  _140
REMARK   64  A    between atoms: _150  and  _152
REMARK   65  A    between atoms: _152  and  _153
REMARK   66  A    between atoms: _152  and  _155
REMARK   67  A    between atoms: _155  and  _156
REMARK   68  A    between atoms: _156  and  _157
REMARK   69  A    between atoms: _161  and  _162
REMARK   70  A    between atoms: _167  and  _169
REMARK   71  A    between atoms: _169  and  _170
REMARK   72  A    between atoms: _172  and  _174
REMARK   73  A    between atoms: _174  and  _175
REMARK   74  A    between atoms: _174  and  _177
REMARK   75  A    between atoms: _177  and  _178
REMARK   76  A    between atoms: _181  and  _183
REMARK   77  A    between atoms: _183  and  _184
REMARK   78  A    between atoms: _183  and  _186
REMARK   79  A    between atoms: _186  and  _187
REMARK   80  A    between atoms: _187  and  _188
REMARK   81  A    between atoms: _188  and  _189
REMARK   82  A    between atoms: _198  and  _200
REMARK   83  A    between atoms: _200  and  _201
REMARK   84  A    between atoms: _204  and  _206
REMARK   85  A    between atoms: _206  and  _207
REMARK   86  A    between atoms: _206  and  _209
REMARK   87  A    between atoms: _209  and  _210
REMARK   88  A    between atoms: _212  and  _214
REMARK   89  A    between atoms: _214  and  _215
REMARK   90  A    between atoms: _214  and  _217
REMARK   91  A    between atoms: _217  and  _218
REMARK   92  A    between atoms: _218  and  _219
REMARK   93  A    between atoms: _222  and  _224
REMARK   94  A    between atoms: _224  and  _225
REMARK   95  A    between atoms: _224  and  _227
REMARK   96  A    between atoms: _227  and  _228
REMARK   97  A    between atoms: _233  and  _235
REMARK   98  A    between atoms: _235  and  _236
REMARK   99  A    between atoms: _235  and  _238
REMARK  100  A    between atoms: _238  and  _239
REMARK  101  A    between atoms: _239  and  _240
REMARK  102  A    between atoms: _240  and  _241
REMARK  103  A    between atoms: _250  and  _252
REMARK  104  A    between atoms: _252  and  _253
REMARK  105  A    between atoms: _252  and  _255
REMARK  106  A    between atoms: _255  and  _256
REMARK  107  A    between atoms: _261  and  _263
REMARK  108  A    between atoms: _263  and  _264
REMARK  109  A    between atoms: _263  and  _266
REMARK  110  A    between atoms: _266  and  _267
REMARK                            x       y       z     vdW  Elec       q    Type
REMARK                         _______ _______ _______ _____ _____    ______ ____
ROOT
ATOM      1  O   HOH     1      19.834  36.830   3.998  0.00  0.00    +0.000 OA
ENDROOT
TORSDOF 0
REMARK  Name = ../refined-set-2016/4j47/4j47_pocket.pdb
REMARK  110 active torsions:
REMARK  status: ('A' for Active; 'I' for Inactive)
REMARK    1  A    between atoms: _1  and  _3
REMARK    2  A    between atoms: _3  and  _4
REMARK    3  A    between atoms: _3  and  _6
REMARK    4  A    between atoms: _6  and  _7
REMARK    5  A    between atoms: _10  and  _12
REMARK    6  A    between atoms: _12  and  _13
REMARK    7  A    between atoms: _12  and  _15
REMARK    8  A    between atoms: _15  and  _16
REMARK    9  A    between atoms: _19  and  _21
REMARK   10  A    between atoms: _21  and  _22
REMARK   11  A    between atoms: _21  and  _24
REMARK   12  A    between atoms: _24  and  _25
REMARK   13  A    between atoms: _28  and  _30
REMARK   14  A    between atoms: _30  and  _31
REMARK   15  A    between atoms: _30  and  _33
REMARK   16  A    between atoms: _33  and  _34
REMARK   17  A    between atoms: _37  and  _39
REMARK   18  A    between atoms: _39  and  _40
REMARK   19  A    between atoms: _39  and  _42
REMARK   20  A    between atoms: _42  and  _43
REMARK   21  A    between atoms: _46  and  _48
REMARK   22  A    between atoms: _48  and  _49
REMARK   23  A    between atoms: _48  and  _51
REMARK   24  A    between atoms: _51  and  _52
REMARK   25  A    between atoms: _52  and  _53
REMARK   26  A    between atoms: _58  and  _60
REMARK   27  A    between atoms: _60  and  _61
REMARK   28  A    between atoms: _60  and  _63
REMARK   29  A    between atoms: _66  and  _68
REMARK   30  A    between atoms: _68  and  _69
REMARK   31  A    between atoms: _68  and  _71
REMARK   32  A    between atoms: _71  and  _72
REMARK   33  A    between atoms: _72  and  _73
REMARK   34  A    between atoms: _78  and  _80
REMARK   35  A    between atoms: _80  and  _81
REMARK   36  A    between atoms: _83  and  _85
REMARK   37  A    between atoms: _85  and  _86
REMARK   38  A    between atoms: _88  and  _90
REMARK   39  A    between atoms: _90  and  _91
REMARK   40  A    between atoms: _90  and  _93
REMARK   41  A    between atoms: _93  and  _94
REMARK   42  A    between atoms: _94  and  _95
REMARK   43  A    between atoms: _95  and  _96
REMARK   44  A    between atoms: _96  and  _97
REMARK   45  A    between atoms: _101  and  _103
REMARK   46  A    between atoms: _103  and  _104
REMARK   47  A    between atoms: _103  and  _106
REMARK   48  A    between atoms: _106  and  _107
REMARK   49  A    between atoms: _110  and  _112
REMARK   50  A    between atoms: _112  and  _113
REMARK   51  A    between atoms: _112  and  _115
REMARK   52  A    between atoms: _115  and  _116
REMARK   53  A    between atoms: _116  and  _117
REMARK   54  A    between atoms: _117  and  _118
REMARK   55  A    between atoms: _118  and  _119
REMARK   56  A    between atoms: _123  and  _125
REMARK   57  A    between atoms: _125  and  _126
REMARK   58  A    between atoms: _125  and  _128
REMARK   59  A    between atoms: _128  and  _129
REMARK   60  A    between atoms: _134  and  _136
REMARK   61  A    between atoms: _136  and  _137
REMARK   62  A    between atoms: _136  and  _139
REMARK   63  A    between atoms: _139  and  _140
REMARK   64  A    between atoms: _150  and  _152
REMARK   65  A    between atoms: _152  and  _153
REMARK   66  A    between atoms: _152  and  _155
REMARK   67  A    between atoms: _155  and  _156
REMARK   68  A    between atoms: _156  and  _157
REMARK   69  A    between atoms: _161  and  _162
REMARK   70  A    between atoms: _167  and  _169
REMARK   71  A    between atoms: _169  and  _170
REMARK   72  A    between atoms: _172  and  _174
REMARK   73  A    between atoms: _174  and  _175
REMARK   74  A    between atoms: _174  and  _177
REMARK   75  A    between atoms: _177  and  _178
REMARK   76  A    between atoms: _181  and  _183
REMARK   77  A    between atoms: _183  and  _184
REMARK   78  A    between atoms: _183  and  _186
REMARK   79  A    between atoms: _186  and  _187
REMARK   80  A    between atoms: _187  and  _188
REMARK   81  A    between atoms: _188  and  _189
REMARK   82  A    between atoms: _198  and  _200
REMARK   83  A    between atoms: _200  and  _201
REMARK   84  A    between atoms: _204  and  _206
REMARK   85  A    between atoms: _206  and  _207
REMARK   86  A    between atoms: _206  and  _209
REMARK   87  A    between atoms: _209  and  _210
REMARK   88  A    between atoms: _212  and  _214
REMARK   89  A    between atoms: _214  and  _215
REMARK   90  A    between atoms: _214  and  _217
REMARK   91  A    between atoms: _217  and  _218
REMARK   92  A    between atoms: _218  and  _219
REMARK   93  A    between atoms: _222  and  _224
REMARK   94  A    between atoms: _224  and  _225
REMARK   95  A    between atoms: _224  and  _227
REMARK   96  A    between atoms: _227  and  _228
REMARK   97  A    between atoms: _233  and  _235
REMARK   98  A    between atoms: _235  and  _236
REMARK   99  A    between atoms: _235  and  _238
REMARK  100  A    between atoms: _238  and  _239
REMARK  101  A    between atoms: _239  and  _240
REMARK  102  A    between atoms: _240  and  _241
REMARK  103  A    between atoms: _250  and  _252
REMARK  104  A    between atoms: _252  and  _253
REMARK  105  A    between atoms: _252  and  _255
REMARK  106  A    between atoms: _255  and  _256
REMARK  107  A    between atoms: _261  and  _263
REMARK  108  A    between atoms: _263  and  _264
REMARK  109  A    between atoms: _263  and  _266
REMARK  110  A    between atoms: _266  and  _267
REMARK                            x       y       z     vdW  Elec       q    Type
REMARK                         _______ _______ _______ _____ _____    ______ ____
ROOT
ATOM      1  O   HOH     1      27.755  44.196  10.018  0.00  0.00    +0.000 OA
ENDROOT
TORSDOF 0
REMARK  Name = ../refined-set-2016/4j47/4j47_pocket.pdb
REMARK  110 active torsions:
REMARK  status: ('A' for Active; 'I' for Inactive)
REMARK    1  A    between atoms: _1  and  _3
REMARK    2  A    between atoms: _3  and  _4
REMARK    3  A    between atoms: _3  and  _6
REMARK    4  A    between atoms: _6  and  _7
REMARK    5  A    between atoms: _10  and  _12
REMARK    6  A    between atoms: _12  and  _13
REMARK    7  A    between atoms: _12  and  _15
REMARK    8  A    between atoms: _15  and  _16
REMARK    9  A    between atoms: _19  and  _21
REMARK   10  A    between atoms: _21  and  _22
REMARK   11  A    between atoms: _21  and  _24
REMARK   12  A    between atoms: _24  and  _25
REMARK   13  A    between atoms: _28  and  _30
REMARK   14  A    between atoms: _30  and  _31
REMARK   15  A    between atoms: _30  and  _33
REMARK   16  A    between atoms: _33  and  _34
REMARK   17  A    between atoms: _37  and  _39
REMARK   18  A    between atoms: _39  and  _40
REMARK   19  A    between atoms: _39  and  _42
REMARK   20  A    between atoms: _42  and  _43
REMARK   21  A    between atoms: _46  and  _48
REMARK   22  A    between atoms: _48  and  _49
REMARK   23  A    between atoms: _48  and  _51
REMARK   24  A    between atoms: _51  and  _52
REMARK   25  A    between atoms: _52  and  _53
REMARK   26  A    between atoms: _58  and  _60
REMARK   27  A    between atoms: _60  and  _61
REMARK   28  A    between atoms: _60  and  _63
REMARK   29  A    between atoms: _66  and  _68
REMARK   30  A    between atoms: _68  and  _69
REMARK   31  A    between atoms: _68  and  _71
REMARK   32  A    between atoms: _71  and  _72
REMARK   33  A    between atoms: _72  and  _73
REMARK   34  A    between atoms: _78  and  _80
REMARK   35  A    between atoms: _80  and  _81
REMARK   36  A    between atoms: _83  and  _85
REMARK   37  A    between atoms: _85  and  _86
REMARK   38  A    between atoms: _88  and  _90
REMARK   39  A    between atoms: _90  and  _91
REMARK   40  A    between atoms: _90  and  _93
REMARK   41  A    between atoms: _93  and  _94
REMARK   42  A    between atoms: _94  and  _95
REMARK   43  A    between atoms: _95  and  _96
REMARK   44  A    between atoms: _96  and  _97
REMARK   45  A    between atoms: _101  and  _103
REMARK   46  A    between atoms: _103  and  _104
REMARK   47  A    between atoms: _103  and  _106
REMARK   48  A    between atoms: _106  and  _107
REMARK   49  A    between atoms: _110  and  _112
REMARK   50  A    between atoms: _112  and  _113
REMARK   51  A    between atoms: _112  and  _115
REMARK   52  A    between atoms: _115  and  _116
REMARK   53  A    between atoms: _116  and  _117
REMARK   54  A    between atoms: _117  and  _118
REMARK   55  A    between atoms: _118  and  _119
REMARK   56  A    between atoms: _123  and  _125
REMARK   57  A    between atoms: _125  and  _126
REMARK   58  A    between atoms: _125  and  _128
REMARK   59  A    between atoms: _128  and  _129
REMARK   60  A    between atoms: _134  and  _136
REMARK   61  A    between atoms: _136  and  _137
REMARK   62  A    between atoms: _136  and  _139
REMARK   63  A    between atoms: _139  and  _140
REMARK   64  A    between atoms: _150  and  _152
REMARK   65  A    between atoms: _152  and  _153
REMARK   66  A    between atoms: _152  and  _155
REMARK   67  A    between atoms: _155  and  _156
REMARK   68  A    between atoms: _156  and  _157
REMARK   69  A    between atoms: _161  and  _162
REMARK   70  A    between atoms: _167  and  _169
REMARK   71  A    between atoms: _169  and  _170
REMARK   72  A    between atoms: _172  and  _174
REMARK   73  A    between atoms: _174  and  _175
REMARK   74  A    between atoms: _174  and  _177
REMARK   75  A    between atoms: _177  and  _178
REMARK   76  A    between atoms: _181  and  _183
REMARK   77  A    between atoms: _183  and  _184
REMARK   78  A    between atoms: _183  and  _186
REMARK   79  A    between atoms: _186  and  _187
REMARK   80  A    between atoms: _187  and  _188
REMARK   81  A    between atoms: _188  and  _189
REMARK   82  A    between atoms: _198  and  _200
REMARK   83  A    between atoms: _200  and  _201
REMARK   84  A    between atoms: _204  and  _206
REMARK   85  A    between atoms: _206  and  _207
REMARK   86  A    between atoms: _206  and  _209
REMARK   87  A    between atoms: _209  and  _210
REMARK   88  A    between atoms: _212  and  _214
REMARK   89  A    between atoms: _214  and  _215
REMARK   90  A    between atoms: _214  and  _217
REMARK   91  A    between atoms: _217  and  _218
REMARK   92  A    between atoms: _218  and  _219
REMARK   93  A    between atoms: _222  and  _224
REMARK   94  A    between atoms: _224  and  _225
REMARK   95  A    between atoms: _224  and  _227
REMARK   96  A    between atoms: _227  and  _228
REMARK   97  A    between atoms: _233  and  _235
REMARK   98  A    between atoms: _235  and  _236
REMARK   99  A    between atoms: _235  and  _238
REMARK  100  A    between atoms: _238  and  _239
REMARK  101  A    between atoms: _239  and  _240
REMARK  102  A    between atoms: _240  and  _241
REMARK  103  A    between atoms: _250  and  _252
REMARK  104  A    between atoms: _252  and  _253
REMARK  105  A    between atoms: _252  and  _255
REMARK  106  A    between atoms: _255  and  _256
REMARK  107  A    between atoms: _261  and  _263
REMARK  108  A    between atoms: _263  and  _264
REMARK  109  A    between atoms: _263  and  _266
REMARK  110  A    between atoms: _266  and  _267
REMARK                            x       y       z     vdW  Elec       q    Type
REMARK                         _______ _______ _______ _____ _____    ______ ____
ROOT
ATOM      1  O   HOH     1      28.962  40.286   7.548  0.00  0.00    +0.000 OA
ENDROOT
TORSDOF 0
REMARK  Name = ../refined-set-2016/4j47/4j47_pocket.pdb
REMARK  110 active torsions:
REMARK  status: ('A' for Active; 'I' for Inactive)
REMARK    1  A    between atoms: _1  and  _3
REMARK    2  A    between atoms: _3  and  _4
REMARK    3  A    between atoms: _3  and  _6
REMARK    4  A    between atoms: _6  and  _7
REMARK    5  A    between atoms: _10  and  _12
REMARK    6  A    between atoms: _12  and  _13
REMARK    7  A    between atoms: _12  and  _15
REMARK    8  A    between atoms: _15  and  _16
REMARK    9  A    between atoms: _19  and  _21
REMARK   10  A    between atoms: _21  and  _22
REMARK   11  A    between atoms: _21  and  _24
REMARK   12  A    between atoms: _24  and  _25
REMARK   13  A    between atoms: _28  and  _30
REMARK   14  A    between atoms: _30  and  _31
REMARK   15  A    between atoms: _30  and  _33
REMARK   16  A    between atoms: _33  and  _34
REMARK   17  A    between atoms: _37  and  _39
REMARK   18  A    between atoms: _39  and  _40
REMARK   19  A    between atoms: _39  and  _42
REMARK   20  A    between atoms: _42  and  _43
REMARK   21  A    between atoms: _46  and  _48
REMARK   22  A    between atoms: _48  and  _49
REMARK   23  A    between atoms: _48  and  _51
REMARK   24  A    between atoms: _51  and  _52
REMARK   25  A    between atoms: _52  and  _53
REMARK   26  A    between atoms: _58  and  _60
REMARK   27  A    between atoms: _60  and  _61
REMARK   28  A    between atoms: _60  and  _63
REMARK   29  A    between atoms: _66  and  _68
REMARK   30  A    between atoms: _68  and  _69
REMARK   31  A    between atoms: _68  and  _71
REMARK   32  A    between atoms: _71  and  _72
REMARK   33  A    between atoms: _72  and  _73
REMARK   34  A    between atoms: _78  and  _80
REMARK   35  A    between atoms: _80  and  _81
REMARK   36  A    between atoms: _83  and  _85
REMARK   37  A    between atoms: _85  and  _86
REMARK   38  A    between atoms: _88  and  _90
REMARK   39  A    between atoms: _90  and  _91
REMARK   40  A    between atoms: _90  and  _93
REMARK   41  A    between atoms: _93  and  _94
REMARK   42  A    between atoms: _94  and  _95
REMARK   43  A    between atoms: _95  and  _96
REMARK   44  A    between atoms: _96  and  _97
REMARK   45  A    between atoms: _101  and  _103
REMARK   46  A    between atoms: _103  and  _104
REMARK   47  A    between atoms: _103  and  _106
REMARK   48  A    between atoms: _106  and  _107
REMARK   49  A    between atoms: _110  and  _112
REMARK   50  A    between atoms: _112  and  _113
REMARK   51  A    between atoms: _112  and  _115
REMARK   52  A    between atoms: _115  and  _116
REMARK   53  A    between atoms: _116  and  _117
REMARK   54  A    between atoms: _117  and  _118
REMARK   55  A    between atoms: _118  and  _119
REMARK   56  A    between atoms: _123  and  _125
REMARK   57  A    between atoms: _125  and  _126
REMARK   58  A    between atoms: _125  and  _128
REMARK   59  A    between atoms: _128  and  _129
REMARK   60  A    between atoms: _134  and  _136
REMARK   61  A    between atoms: _136  and  _137
REMARK   62  A    between atoms: _136  and  _139
REMARK   63  A    between atoms: _139  and  _140
REMARK   64  A    between atoms: _150  and  _152
REMARK   65  A    between atoms: _152  and  _153
REMARK   66  A    between atoms: _152  and  _155
REMARK   67  A    between atoms: _155  and  _156
REMARK   68  A    between atoms: _156  and  _157
REMARK   69  A    between atoms: _161  and  _162
REMARK   70  A    between atoms: _167  and  _169
REMARK   71  A    between atoms: _169  and  _170
REMARK   72  A    between atoms: _172  and  _174
REMARK   73  A    between atoms: _174  and  _175
REMARK   74  A    between atoms: _174  and  _177
REMARK   75  A    between atoms: _177  and  _178
REMARK   76  A    between atoms: _181  and  _183
REMARK   77  A    between atoms: _183  and  _184
REMARK   78  A    between atoms: _183  and  _186
REMARK   79  A    between atoms: _186  and  _187
REMARK   80  A    between atoms: _187  and  _188
REMARK   81  A    between atoms: _188  and  _189
REMARK   82  A    between atoms: _198  and  _200
REMARK   83  A    between atoms: _200  and  _201
REMARK   84  A    between atoms: _204  and  _206
REMARK   85  A    between atoms: _206  and  _207
REMARK   86  A    between atoms: _206  and  _209
REMARK   87  A    between atoms: _209  and  _210
REMARK   88  A    between atoms: _212  and  _214
REMARK   89  A    between atoms: _214  and  _215
REMARK   90  A    between atoms: _214  and  _217
REMARK   91  A    between atoms: _217  and  _218
REMARK   92  A    between atoms: _218  and  _219
REMARK   93  A    between atoms: _222  and  _224
REMARK   94  A    between atoms: _224  and  _225
REMARK   95  A    between atoms: _224  and  _227
REMARK   96  A    between atoms: _227  and  _228
REMARK   97  A    between atoms: _233  and  _235
REMARK   98  A    between atoms: _235  and  _236
REMARK   99  A    between atoms: _235  and  _238
REMARK  100  A    between atoms: _238  and  _239
REMARK  101  A    between atoms: _239  and  _240
REMARK  102  A    between atoms: _240  and  _241
REMARK  103  A    between atoms: _250  and  _252
REMARK  104  A    between atoms: _252  and  _253
REMARK  105  A    between atoms: _252  and  _255
REMARK  106  A    between atoms: _255  and  _256
REMARK  107  A    between atoms: _261  and  _263
REMARK  108  A    between atoms: _263  and  _264
REMARK  109  A    between atoms: _263  and  _266
REMARK  110  A    between atoms: _266  and  _267
REMARK                            x       y       z     vdW  Elec       q    Type
REMARK                         _______ _______ _______ _____ _____    ______ ____
ROOT
ATOM      1  O   HOH     1      26.704  28.555  19.315  0.00  0.00    +0.000 OA
ENDROOT
TORSDOF 0
REMARK  Name = ../refined-set-2016/4j47/4j47_pocket.pdb
REMARK  110 active torsions:
REMARK  status: ('A' for Active; 'I' for Inactive)
REMARK    1  A    between atoms: _1  and  _3
REMARK    2  A    between atoms: _3  and  _4
REMARK    3  A    between atoms: _3  and  _6
REMARK    4  A    between atoms: _6  and  _7
REMARK    5  A    between atoms: _10  and  _12
REMARK    6  A    between atoms: _12  and  _13
REMARK    7  A    between atoms: _12  and  _15
REMARK    8  A    between atoms: _15  and  _16
REMARK    9  A    between atoms: _19  and  _21
REMARK   10  A    between atoms: _21  and  _22
REMARK   11  A    between atoms: _21  and  _24
REMARK   12  A    between atoms: _24  and  _25
REMARK   13  A    between atoms: _28  and  _30
REMARK   14  A    between atoms: _30  and  _31
REMARK   15  A    between atoms: _30  and  _33
REMARK   16  A    between atoms: _33  and  _34
REMARK   17  A    between atoms: _37  and  _39
REMARK   18  A    between atoms: _39  and  _40
REMARK   19  A    between atoms: _39  and  _42
REMARK   20  A    between atoms: _42  and  _43
REMARK   21  A    between atoms: _46  and  _48
REMARK   22  A    between atoms: _48  and  _49
REMARK   23  A    between atoms: _48  and  _51
REMARK   24  A    between atoms: _51  and  _52
REMARK   25  A    between atoms: _52  and  _53
REMARK   26  A    between atoms: _58  and  _60
REMARK   27  A    between atoms: _60  and  _61
REMARK   28  A    between atoms: _60  and  _63
REMARK   29  A    between atoms: _66  and  _68
REMARK   30  A    between atoms: _68  and  _69
REMARK   31  A    between atoms: _68  and  _71
REMARK   32  A    between atoms: _71  and  _72
REMARK   33  A    between atoms: _72  and  _73
REMARK   34  A    between atoms: _78  and  _80
REMARK   35  A    between atoms: _80  and  _81
REMARK   36  A    between atoms: _83  and  _85
REMARK   37  A    between atoms: _85  and  _86
REMARK   38  A    between atoms: _88  and  _90
REMARK   39  A    between atoms: _90  and  _91
REMARK   40  A    between atoms: _90  and  _93
REMARK   41  A    between atoms: _93  and  _94
REMARK   42  A    between atoms: _94  and  _95
REMARK   43  A    between atoms: _95  and  _96
REMARK   44  A    between atoms: _96  and  _97
REMARK   45  A    between atoms: _101  and  _103
REMARK   46  A    between atoms: _103  and  _104
REMARK   47  A    between atoms: _103  and  _106
REMARK   48  A    between atoms: _106  and  _107
REMARK   49  A    between atoms: _110  and  _112
REMARK   50  A    between atoms: _112  and  _113
REMARK   51  A    between atoms: _112  and  _115
REMARK   52  A    between atoms: _115  and  _116
REMARK   53  A    between atoms: _116  and  _117
REMARK   54  A    between atoms: _117  and  _118
REMARK   55  A    between atoms: _118  and  _119
REMARK   56  A    between atoms: _123  and  _125
REMARK   57  A    between atoms: _125  and  _126
REMARK   58  A    between atoms: _125  and  _128
REMARK   59  A    between atoms: _128  and  _129
REMARK   60  A    between atoms: _134  and  _136
REMARK   61  A    between atoms: _136  and  _137
REMARK   62  A    between atoms: _136  and  _139
REMARK   63  A    between atoms: _139  and  _140
REMARK   64  A    between atoms: _150  and  _152
REMARK   65  A    between atoms: _152  and  _153
REMARK   66  A    between atoms: _152  and  _155
REMARK   67  A    between atoms: _155  and  _156
REMARK   68  A    between atoms: _156  and  _157
REMARK   69  A    between atoms: _161  and  _162
REMARK   70  A    between atoms: _167  and  _169
REMARK   71  A    between atoms: _169  and  _170
REMARK   72  A    between atoms: _172  and  _174
REMARK   73  A    between atoms: _174  and  _175
REMARK   74  A    between atoms: _174  and  _177
REMARK   75  A    between atoms: _177  and  _178
REMARK   76  A    between atoms: _181  and  _183
REMARK   77  A    between atoms: _183  and  _184
REMARK   78  A    between atoms: _183  and  _186
REMARK   79  A    between atoms: _186  and  _187
REMARK   80  A    between atoms: _187  and  _188
REMARK   81  A    between atoms: _188  and  _189
REMARK   82  A    between atoms: _198  and  _200
REMARK   83  A    between atoms: _200  and  _201
REMARK   84  A    between atoms: _204  and  _206
REMARK   85  A    between atoms: _206  and  _207
REMARK   86  A    between atoms: _206  and  _209
REMARK   87  A    between atoms: _209  and  _210
REMARK   88  A    between atoms: _212  and  _214
REMARK   89  A    between atoms: _214  and  _215
REMARK   90  A    between atoms: _214  and  _217
REMARK   91  A    between atoms: _217  and  _218
REMARK   92  A    between atoms: _218  and  _219
REMARK   93  A    between atoms: _222  and  _224
REMARK   94  A    between atoms: _224  and  _225
REMARK   95  A    between atoms: _224  and  _227
REMARK   96  A    between atoms: _227  and  _228
REMARK   97  A    between atoms: _233  and  _235
REMARK   98  A    between atoms: _235  and  _236
REMARK   99  A    between atoms: _235  and  _238
REMARK  100  A    between atoms: _238  and  _239
REMARK  101  A    between atoms: _239  and  _240
REMARK  102  A    between atoms: _240  and  _241
REMARK  103  A    between atoms: _250  and  _252
REMARK  104  A    between atoms: _252  and  _253
REMARK  105  A    between atoms: _252  and  _255
REMARK  106  A    between atoms: _255  and  _256
REMARK  107  A    between atoms: _261  and  _263
REMARK  108  A    between atoms: _263  and  _264
REMARK  109  A    between atoms: _263  and  _266
REMARK  110  A    between atoms: _266  and  _267
REMARK                            x       y       z     vdW  Elec       q    Type
REMARK                         _______ _______ _______ _____ _____    ______ ____
ROOT
ATOM      1  O   HOH     1      24.972  38.058   4.146  0.00  0.00    +0.000 OA
ENDROOT
TORSDOF 0
REMARK  Name = ../refined-set-2016/4j47/4j47_pocket.pdb
REMARK  110 active torsions:
REMARK  status: ('A' for Active; 'I' for Inactive)
REMARK    1  A    between atoms: _1  and  _3
REMARK    2  A    between atoms: _3  and  _4
REMARK    3  A    between atoms: _3  and  _6
REMARK    4  A    between atoms: _6  and  _7
REMARK    5  A    between atoms: _10  and  _12
REMARK    6  A    between atoms: _12  and  _13
REMARK    7  A    between atoms: _12  and  _15
REMARK    8  A    between atoms: _15  and  _16
REMARK    9  A    between atoms: _19  and  _21
REMARK   10  A    between atoms: _21  and  _22
REMARK   11  A    between atoms: _21  and  _24
REMARK   12  A    between atoms: _24  and  _25
REMARK   13  A    between atoms: _28  and  _30
REMARK   14  A    between atoms: _30  and  _31
REMARK   15  A    between atoms: _30  and  _33
REMARK   16  A    between atoms: _33  and  _34
REMARK   17  A    between atoms: _37  and  _39
REMARK   18  A    between atoms: _39  and  _40
REMARK   19  A    between atoms: _39  and  _42
REMARK   20  A    between atoms: _42  and  _43
REMARK   21  A    between atoms: _46  and  _48
REMARK   22  A    between atoms: _48  and  _49
REMARK   23  A    between atoms: _48  and  _51
REMARK   24  A    between atoms: _51  and  _52
REMARK   25  A    between atoms: _52  and  _53
REMARK   26  A    between atoms: _58  and  _60
REMARK   27  A    between atoms: _60  and  _61
REMARK   28  A    between atoms: _60  and  _63
REMARK   29  A    between atoms: _66  and  _68
REMARK   30  A    between atoms: _68  and  _69
REMARK   31  A    between atoms: _68  and  _71
REMARK   32  A    between atoms: _71  and  _72
REMARK   33  A    between atoms: _72  and  _73
REMARK   34  A    between atoms: _78  and  _80
REMARK   35  A    between atoms: _80  and  _81
REMARK   36  A    between atoms: _83  and  _85
REMARK   37  A    between atoms: _85  and  _86
REMARK   38  A    between atoms: _88  and  _90
REMARK   39  A    between atoms: _90  and  _91
REMARK   40  A    between atoms: _90  and  _93
REMARK   41  A    between atoms: _93  and  _94
REMARK   42  A    between atoms: _94  and  _95
REMARK   43  A    between atoms: _95  and  _96
REMARK   44  A    between atoms: _96  and  _97
REMARK   45  A    between atoms: _101  and  _103
REMARK   46  A    between atoms: _103  and  _104
REMARK   47  A    between atoms: _103  and  _106
REMARK   48  A    between atoms: _106  and  _107
REMARK   49  A    between atoms: _110  and  _112
REMARK   50  A    between atoms: _112  and  _113
REMARK   51  A    between atoms: _112  and  _115
REMARK   52  A    between atoms: _115  and  _116
REMARK   53  A    between atoms: _116  and  _117
REMARK   54  A    between atoms: _117  and  _118
REMARK   55  A    between atoms: _118  and  _119
REMARK   56  A    between atoms: _123  and  _125
REMARK   57  A    between atoms: _125  and  _126
REMARK   58  A    between atoms: _125  and  _128
REMARK   59  A    between atoms: _128  and  _129
REMARK   60  A    between atoms: _134  and  _136
REMARK   61  A    between atoms: _136  and  _137
REMARK   62  A    between atoms: _136  and  _139
REMARK   63  A    between atoms: _139  and  _140
REMARK   64  A    between atoms: _150  and  _152
REMARK   65  A    between atoms: _152  and  _153
REMARK   66  A    between atoms: _152  and  _155
REMARK   67  A    between atoms: _155  and  _156
REMARK   68  A    between atoms: _156  and  _157
REMARK   69  A    between atoms: _161  and  _162
REMARK   70  A    between atoms: _167  and  _169
REMARK   71  A    between atoms: _169  and  _170
REMARK   72  A    between atoms: _172  and  _174
REMARK   73  A    between atoms: _174  and  _175
REMARK   74  A    between atoms: _174  and  _177
REMARK   75  A    between atoms: _177  and  _178
REMARK   76  A    between atoms: _181  and  _183
REMARK   77  A    between atoms: _183  and  _184
REMARK   78  A    between atoms: _183  and  _186
REMARK   79  A    between atoms: _186  and  _187
REMARK   80  A    between atoms: _187  and  _188
REMARK   81  A    between atoms: _188  and  _189
REMARK   82  A    between atoms: _198  and  _200
REMARK   83  A    between atoms: _200  and  _201
REMARK   84  A    between atoms: _204  and  _206
REMARK   85  A    between atoms: _206  and  _207
REMARK   86  A    between atoms: _206  and  _209
REMARK   87  A    between atoms: _209  and  _210
REMARK   88  A    between atoms: _212  and  _214
REMARK   89  A    between atoms: _214  and  _215
REMARK   90  A    between atoms: _214  and  _217
REMARK   91  A    between atoms: _217  and  _218
REMARK   92  A    between atoms: _218  and  _219
REMARK   93  A    between atoms: _222  and  _224
REMARK   94  A    between atoms: _224  and  _225
REMARK   95  A    between atoms: _224  and  _227
REMARK   96  A    between atoms: _227  and  _228
REMARK   97  A    between atoms: _233  and  _235
REMARK   98  A    between atoms: _235  and  _236
REMARK   99  A    between atoms: _235  and  _238
REMARK  100  A    between atoms: _238  and  _239
REMARK  101  A    between atoms: _239  and  _240
REMARK  102  A    between atoms: _240  and  _241
REMARK  103  A    between atoms: _250  and  _252
REMARK  104  A    between atoms: _252  and  _253
REMARK  105  A    between atoms: _252  and  _255
REMARK  106  A    between atoms: _255  and  _256
REMARK  107  A    between atoms: _261  and  _263
REMARK  108  A    between atoms: _263  and  _264
REMARK  109  A    between atoms: _263  and  _266
REMARK  110  A    between atoms: _266  and  _267
REMARK                            x       y       z     vdW  Elec       q    Type
REMARK                         _______ _______ _______ _____ _____    ______ ____
ROOT
ATOM      1  O   HOH     1      31.740  39.816   8.178  0.00  0.00    +0.000 OA
ENDROOT
TORSDOF 0
REMARK  Name = ../refined-set-2016/4j47/4j47_pocket.pdb
REMARK  110 active torsions:
REMARK  status: ('A' for Active; 'I' for Inactive)
REMARK    1  A    between atoms: _1  and  _3
REMARK    2  A    between atoms: _3  and  _4
REMARK    3  A    between atoms: _3  and  _6
REMARK    4  A    between atoms: _6  and  _7
REMARK    5  A    between atoms: _10  and  _12
REMARK    6  A    between atoms: _12  and  _13
REMARK    7  A    between atoms: _12  and  _15
REMARK    8  A    between atoms: _15  and  _16
REMARK    9  A    between atoms: _19  and  _21
REMARK   10  A    between atoms: _21  and  _22
REMARK   11  A    between atoms: _21  and  _24
REMARK   12  A    between atoms: _24  and  _25
REMARK   13  A    between atoms: _28  and  _30
REMARK   14  A    between atoms: _30  and  _31
REMARK   15  A    between atoms: _30  and  _33
REMARK   16  A    between atoms: _33  and  _34
REMARK   17  A    between atoms: _37  and  _39
REMARK   18  A    between atoms: _39  and  _40
REMARK   19  A    between atoms: _39  and  _42
REMARK   20  A    between atoms: _42  and  _43
REMARK   21  A    between atoms: _46  and  _48
REMARK   22  A    between atoms: _48  and  _49
REMARK   23  A    between atoms: _48  and  _51
REMARK   24  A    between atoms: _51  and  _52
REMARK   25  A    between atoms: _52  and  _53
REMARK   26  A    between atoms: _58  and  _60
REMARK   27  A    between atoms: _60  and  _61
REMARK   28  A    between atoms: _60  and  _63
REMARK   29  A    between atoms: _66  and  _68
REMARK   30  A    between atoms: _68  and  _69
REMARK   31  A    between atoms: _68  and  _71
REMARK   32  A    between atoms: _71  and  _72
REMARK   33  A    between atoms: _72  and  _73
REMARK   34  A    between atoms: _78  and  _80
REMARK   35  A    between atoms: _80  and  _81
REMARK   36  A    between atoms: _83  and  _85
REMARK   37  A    between atoms: _85  and  _86
REMARK   38  A    between atoms: _88  and  _90
REMARK   39  A    between atoms: _90  and  _91
REMARK   40  A    between atoms: _90  and  _93
REMARK   41  A    between atoms: _93  and  _94
REMARK   42  A    between atoms: _94  and  _95
REMARK   43  A    between atoms: _95  and  _96
REMARK   44  A    between atoms: _96  and  _97
REMARK   45  A    between atoms: _101  and  _103
REMARK   46  A    between atoms: _103  and  _104
REMARK   47  A    between atoms: _103  and  _106
REMARK   48  A    between atoms: _106  and  _107
REMARK   49  A    between atoms: _110  and  _112
REMARK   50  A    between atoms: _112  and  _113
REMARK   51  A    between atoms: _112  and  _115
REMARK   52  A    between atoms: _115  and  _116
REMARK   53  A    between atoms: _116  and  _117
REMARK   54  A    between atoms: _117  and  _118
REMARK   55  A    between atoms: _118  and  _119
REMARK   56  A    between atoms: _123  and  _125
REMARK   57  A    between atoms: _125  and  _126
REMARK   58  A    between atoms: _125  and  _128
REMARK   59  A    between atoms: _128  and  _129
REMARK   60  A    between atoms: _134  and  _136
REMARK   61  A    between atoms: _136  and  _137
REMARK   62  A    between atoms: _136  and  _139
REMARK   63  A    between atoms: _139  and  _140
REMARK   64  A    between atoms: _150  and  _152
REMARK   65  A    between atoms: _152  and  _153
REMARK   66  A    between atoms: _152  and  _155
REMARK   67  A    between atoms: _155  and  _156
REMARK   68  A    between atoms: _156  and  _157
REMARK   69  A    between atoms: _161  and  _162
REMARK   70  A    between atoms: _167  and  _169
REMARK   71  A    between atoms: _169  and  _170
REMARK   72  A    between atoms: _172  and  _174
REMARK   73  A    between atoms: _174  and  _175
REMARK   74  A    between atoms: _174  and  _177
REMARK   75  A    between atoms: _177  and  _178
REMARK   76  A    between atoms: _181  and  _183
REMARK   77  A    between atoms: _183  and  _184
REMARK   78  A    between atoms: _183  and  _186
REMARK   79  A    between atoms: _186  and  _187
REMARK   80  A    between atoms: _187  and  _188
REMARK   81  A    between atoms: _188  and  _189
REMARK   82  A    between atoms: _198  and  _200
REMARK   83  A    between atoms: _200  and  _201
REMARK   84  A    between atoms: _204  and  _206
REMARK   85  A    between atoms: _206  and  _207
REMARK   86  A    between atoms: _206  and  _209
REMARK   87  A    between atoms: _209  and  _210
REMARK   88  A    between atoms: _212  and  _214
REMARK   89  A    between atoms: _214  and  _215
REMARK   90  A    between atoms: _214  and  _217
REMARK   91  A    between atoms: _217  and  _218
REMARK   92  A    between atoms: _218  and  _219
REMARK   93  A    between atoms: _222  and  _224
REMARK   94  A    between atoms: _224  and  _225
REMARK   95  A    between atoms: _224  and  _227
REMARK   96  A    between atoms: _227  and  _228
REMARK   97  A    between atoms: _233  and  _235
REMARK   98  A    between atoms: _235  and  _236
REMARK   99  A    between atoms: _235  and  _238
REMARK  100  A    between atoms: _238  and  _239
REMARK  101  A    between atoms: _239  and  _240
REMARK  102  A    between atoms: _240  and  _241
REMARK  103  A    between atoms: _250  and  _252
REMARK  104  A    between atoms: _252  and  _253
REMARK  105  A    between atoms: _252  and  _255
REMARK  106  A    between atoms: _255  and  _256
REMARK  107  A    between atoms: _261  and  _263
REMARK  108  A    between atoms: _263  and  _264
REMARK  109  A    between atoms: _263  and  _266
REMARK  110  A    between atoms: _266  and  _267
REMARK                            x       y       z     vdW  Elec       q    Type
REMARK                         _______ _______ _______ _____ _____    ______ ____
ROOT
ATOM      1  O   HOH     1      27.913  29.233   6.952  0.00  0.00    +0.000 OA
ENDROOT
TORSDOF 0
REMARK  Name = ../refined-set-2016/4j47/4j47_pocket.pdb
REMARK  110 active torsions:
REMARK  status: ('A' for Active; 'I' for Inactive)
REMARK    1  A    between atoms: _1  and  _3
REMARK    2  A    between atoms: _3  and  _4
REMARK    3  A    between atoms: _3  and  _6
REMARK    4  A    between atoms: _6  and  _7
REMARK    5  A    between atoms: _10  and  _12
REMARK    6  A    between atoms: _12  and  _13
REMARK    7  A    between atoms: _12  and  _15
REMARK    8  A    between atoms: _15  and  _16
REMARK    9  A    between atoms: _19  and  _21
REMARK   10  A    between atoms: _21  and  _22
REMARK   11  A    between atoms: _21  and  _24
REMARK   12  A    between atoms: _24  and  _25
REMARK   13  A    between atoms: _28  and  _30
REMARK   14  A    between atoms: _30  and  _31
REMARK   15  A    between atoms: _30  and  _33
REMARK   16  A    between atoms: _33  and  _34
REMARK   17  A    between atoms: _37  and  _39
REMARK   18  A    between atoms: _39  and  _40
REMARK   19  A    between atoms: _39  and  _42
REMARK   20  A    between atoms: _42  and  _43
REMARK   21  A    between atoms: _46  and  _48
REMARK   22  A    between atoms: _48  and  _49
REMARK   23  A    between atoms: _48  and  _51
REMARK   24  A    between atoms: _51  and  _52
REMARK   25  A    between atoms: _52  and  _53
REMARK   26  A    between atoms: _58  and  _60
REMARK   27  A    between atoms: _60  and  _61
REMARK   28  A    between atoms: _60  and  _63
REMARK   29  A    between atoms: _66  and  _68
REMARK   30  A    between atoms: _68  and  _69
REMARK   31  A    between atoms: _68  and  _71
REMARK   32  A    between atoms: _71  and  _72
REMARK   33  A    between atoms: _72  and  _73
REMARK   34  A    between atoms: _78  and  _80
REMARK   35  A    between atoms: _80  and  _81
REMARK   36  A    between atoms: _83  and  _85
REMARK   37  A    between atoms: _85  and  _86
REMARK   38  A    between atoms: _88  and  _90
REMARK   39  A    between atoms: _90  and  _91
REMARK   40  A    between atoms: _90  and  _93
REMARK   41  A    between atoms: _93  and  _94
REMARK   42  A    between atoms: _94  and  _95
REMARK   43  A    between atoms: _95  and  _96
REMARK   44  A    between atoms: _96  and  _97
REMARK   45  A    between atoms: _101  and  _103
REMARK   46  A    between atoms: _103  and  _104
REMARK   47  A    between atoms: _103  and  _106
REMARK   48  A    between atoms: _106  and  _107
REMARK   49  A    between atoms: _110  and  _112
REMARK   50  A    between atoms: _112  and  _113
REMARK   51  A    between atoms: _112  and  _115
REMARK   52  A    between atoms: _115  and  _116
REMARK   53  A    between atoms: _116  and  _117
REMARK   54  A    between atoms: _117  and  _118
REMARK   55  A    between atoms: _118  and  _119
REMARK   56  A    between atoms: _123  and  _125
REMARK   57  A    between atoms: _125  and  _126
REMARK   58  A    between atoms: _125  and  _128
REMARK   59  A    between atoms: _128  and  _129
REMARK   60  A    between atoms: _134  and  _136
REMARK   61  A    between atoms: _136  and  _137
REMARK   62  A    between atoms: _136  and  _139
REMARK   63  A    between atoms: _139  and  _140
REMARK   64  A    between atoms: _150  and  _152
REMARK   65  A    between atoms: _152  and  _153
REMARK   66  A    between atoms: _152  and  _155
REMARK   67  A    between atoms: _155  and  _156
REMARK   68  A    between atoms: _156  and  _157
REMARK   69  A    between atoms: _161  and  _162
REMARK   70  A    between atoms: _167  and  _169
REMARK   71  A    between atoms: _169  and  _170
REMARK   72  A    between atoms: _172  and  _174
REMARK   73  A    between atoms: _174  and  _175
REMARK   74  A    between atoms: _174  and  _177
REMARK   75  A    between atoms: _177  and  _178
REMARK   76  A    between atoms: _181  and  _183
REMARK   77  A    between atoms: _183  and  _184
REMARK   78  A    between atoms: _183  and  _186
REMARK   79  A    between atoms: _186  and  _187
REMARK   80  A    between atoms: _187  and  _188
REMARK   81  A    between atoms: _188  and  _189
REMARK   82  A    between atoms: _198  and  _200
REMARK   83  A    between atoms: _200  and  _201
REMARK   84  A    between atoms: _204  and  _206
REMARK   85  A    between atoms: _206  and  _207
REMARK   86  A    between atoms: _206  and  _209
REMARK   87  A    between atoms: _209  and  _210
REMARK   88  A    between atoms: _212  and  _214
REMARK   89  A    between atoms: _214  and  _215
REMARK   90  A    between atoms: _214  and  _217
REMARK   91  A    between atoms: _217  and  _218
REMARK   92  A    between atoms: _218  and  _219
REMARK   93  A    between atoms: _222  and  _224
REMARK   94  A    between atoms: _224  and  _225
REMARK   95  A    between atoms: _224  and  _227
REMARK   96  A    between atoms: _227  and  _228
REMARK   97  A    between atoms: _233  and  _235
REMARK   98  A    between atoms: _235  and  _236
REMARK   99  A    between atoms: _235  and  _238
REMARK  100  A    between atoms: _238  and  _239
REMARK  101  A    between atoms: _239  and  _240
REMARK  102  A    between atoms: _240  and  _241
REMARK  103  A    between atoms: _250  and  _252
REMARK  104  A    between atoms: _252  and  _253
REMARK  105  A    between atoms: _252  and  _255
REMARK  106  A    between atoms: _255  and  _256
REMARK  107  A    between atoms: _261  and  _263
REMARK  108  A    between atoms: _263  and  _264
REMARK  109  A    between atoms: _263  and  _266
REMARK  110  A    between atoms: _266  and  _267
REMARK                            x       y       z     vdW  Elec       q    Type
REMARK                         _______ _______ _______ _____ _____    ______ ____
ROOT
ATOM      1  O   HOH     1      29.772  43.809   8.061  0.00  0.00    +0.000 OA
ENDROOT
TORSDOF 0
REMARK  Name = ../refined-set-2016/4j47/4j47_pocket.pdb
REMARK  110 active torsions:
REMARK  status: ('A' for Active; 'I' for Inactive)
REMARK    1  A    between atoms: _1  and  _3
REMARK    2  A    between atoms: _3  and  _4
REMARK    3  A    between atoms: _3  and  _6
REMARK    4  A    between atoms: _6  and  _7
REMARK    5  A    between atoms: _10  and  _12
REMARK    6  A    between atoms: _12  and  _13
REMARK    7  A    between atoms: _12  and  _15
REMARK    8  A    between atoms: _15  and  _16
REMARK    9  A    between atoms: _19  and  _21
REMARK   10  A    between atoms: _21  and  _22
REMARK   11  A    between atoms: _21  and  _24
REMARK   12  A    between atoms: _24  and  _25
REMARK   13  A    between atoms: _28  and  _30
REMARK   14  A    between atoms: _30  and  _31
REMARK   15  A    between atoms: _30  and  _33
REMARK   16  A    between atoms: _33  and  _34
REMARK   17  A    between atoms: _37  and  _39
REMARK   18  A    between atoms: _39  and  _40
REMARK   19  A    between atoms: _39  and  _42
REMARK   20  A    between atoms: _42  and  _43
REMARK   21  A    between atoms: _46  and  _48
REMARK   22  A    between atoms: _48  and  _49
REMARK   23  A    between atoms: _48  and  _51
REMARK   24  A    between atoms: _51  and  _52
REMARK   25  A    between atoms: _52  and  _53
REMARK   26  A    between atoms: _58  and  _60
REMARK   27  A    between atoms: _60  and  _61
REMARK   28  A    between atoms: _60  and  _63
REMARK   29  A    between atoms: _66  and  _68
REMARK   30  A    between atoms: _68  and  _69
REMARK   31  A    between atoms: _68  and  _71
REMARK   32  A    between atoms: _71  and  _72
REMARK   33  A    between atoms: _72  and  _73
REMARK   34  A    between atoms: _78  and  _80
REMARK   35  A    between atoms: _80  and  _81
REMARK   36  A    between atoms: _83  and  _85
REMARK   37  A    between atoms: _85  and  _86
REMARK   38  A    between atoms: _88  and  _90
REMARK   39  A    between atoms: _90  and  _91
REMARK   40  A    between atoms: _90  and  _93
REMARK   41  A    between atoms: _93  and  _94
REMARK   42  A    between atoms: _94  and  _95
REMARK   43  A    between atoms: _95  and  _96
REMARK   44  A    between atoms: _96  and  _97
REMARK   45  A    between atoms: _101  and  _103
REMARK   46  A    between atoms: _103  and  _104
REMARK   47  A    between atoms: _103  and  _106
REMARK   48  A    between atoms: _106  and  _107
REMARK   49  A    between atoms: _110  and  _112
REMARK   50  A    between atoms: _112  and  _113
REMARK   51  A    between atoms: _112  and  _115
REMARK   52  A    between atoms: _115  and  _116
REMARK   53  A    between atoms: _116  and  _117
REMARK   54  A    between atoms: _117  and  _118
REMARK   55  A    between atoms: _118  and  _119
REMARK   56  A    between atoms: _123  and  _125
REMARK   57  A    between atoms: _125  and  _126
REMARK   58  A    between atoms: _125  and  _128
REMARK   59  A    between atoms: _128  and  _129
REMARK   60  A    between atoms: _134  and  _136
REMARK   61  A    between atoms: _136  and  _137
REMARK   62  A    between atoms: _136  and  _139
REMARK   63  A    between atoms: _139  and  _140
REMARK   64  A    between atoms: _150  and  _152
REMARK   65  A    between atoms: _152  and  _153
REMARK   66  A    between atoms: _152  and  _155
REMARK   67  A    between atoms: _155  and  _156
REMARK   68  A    between atoms: _156  and  _157
REMARK   69  A    between atoms: _161  and  _162
REMARK   70  A    between atoms: _167  and  _169
REMARK   71  A    between atoms: _169  and  _170
REMARK   72  A    between atoms: _172  and  _174
REMARK   73  A    between atoms: _174  and  _175
REMARK   74  A    between atoms: _174  and  _177
REMARK   75  A    between atoms: _177  and  _178
REMARK   76  A    between atoms: _181  and  _183
REMARK   77  A    between atoms: _183  and  _184
REMARK   78  A    between atoms: _183  and  _186
REMARK   79  A    between atoms: _186  and  _187
REMARK   80  A    between atoms: _187  and  _188
REMARK   81  A    between atoms: _188  and  _189
REMARK   82  A    between atoms: _198  and  _200
REMARK   83  A    between atoms: _200  and  _201
REMARK   84  A    between atoms: _204  and  _206
REMARK   85  A    between atoms: _206  and  _207
REMARK   86  A    between atoms: _206  and  _209
REMARK   87  A    between atoms: _209  and  _210
REMARK   88  A    between atoms: _212  and  _214
REMARK   89  A    between atoms: _214  and  _215
REMARK   90  A    between atoms: _214  and  _217
REMARK   91  A    between atoms: _217  and  _218
REMARK   92  A    between atoms: _218  and  _219
REMARK   93  A    between atoms: _222  and  _224
REMARK   94  A    between atoms: _224  and  _225
REMARK   95  A    between atoms: _224  and  _227
REMARK   96  A    between atoms: _227  and  _228
REMARK   97  A    between atoms: _233  and  _235
REMARK   98  A    between atoms: _235  and  _236
REMARK   99  A    between atoms: _235  and  _238
REMARK  100  A    between atoms: _238  and  _239
REMARK  101  A    between atoms: _239  and  _240
REMARK  102  A    between atoms: _240  and  _241
REMARK  103  A    between atoms: _250  and  _252
REMARK  104  A    between atoms: _252  and  _253
REMARK  105  A    between atoms: _252  and  _255
REMARK  106  A    between atoms: _255  and  _256
REMARK  107  A    between atoms: _261  and  _263
REMARK  108  A    between atoms: _263  and  _264
REMARK  109  A    between atoms: _263  and  _266
REMARK  110  A    between atoms: _266  and  _267
REMARK                            x       y       z     vdW  Elec       q    Type
REMARK                         _______ _______ _______ _____ _____    ______ ____
ROOT
ATOM      1  O   HOH     1      31.056  37.194  21.172  0.00  0.00    +0.000 OA
ENDROOT
TORSDOF 0
REMARK  Name = ../refined-set-2016/4j47/4j47_pocket.pdb
REMARK  110 active torsions:
REMARK  status: ('A' for Active; 'I' for Inactive)
REMARK    1  A    between atoms: _1  and  _3
REMARK    2  A    between atoms: _3  and  _4
REMARK    3  A    between atoms: _3  and  _6
REMARK    4  A    between atoms: _6  and  _7
REMARK    5  A    between atoms: _10  and  _12
REMARK    6  A    between atoms: _12  and  _13
REMARK    7  A    between atoms: _12  and  _15
REMARK    8  A    between atoms: _15  and  _16
REMARK    9  A    between atoms: _19  and  _21
REMARK   10  A    between atoms: _21  and  _22
REMARK   11  A    between atoms: _21  and  _24
REMARK   12  A    between atoms: _24  and  _25
REMARK   13  A    between atoms: _28  and  _30
REMARK   14  A    between atoms: _30  and  _31
REMARK   15  A    between atoms: _30  and  _33
REMARK   16  A    between atoms: _33  and  _34
REMARK   17  A    between atoms: _37  and  _39
REMARK   18  A    between atoms: _39  and  _40
REMARK   19  A    between atoms: _39  and  _42
REMARK   20  A    between atoms: _42  and  _43
REMARK   21  A    between atoms: _46  and  _48
REMARK   22  A    between atoms: _48  and  _49
REMARK   23  A    between atoms: _48  and  _51
REMARK   24  A    between atoms: _51  and  _52
REMARK   25  A    between atoms: _52  and  _53
REMARK   26  A    between atoms: _58  and  _60
REMARK   27  A    between atoms: _60  and  _61
REMARK   28  A    between atoms: _60  and  _63
REMARK   29  A    between atoms: _66  and  _68
REMARK   30  A    between atoms: _68  and  _69
REMARK   31  A    between atoms: _68  and  _71
REMARK   32  A    between atoms: _71  and  _72
REMARK   33  A    between atoms: _72  and  _73
REMARK   34  A    between atoms: _78  and  _80
REMARK   35  A    between atoms: _80  and  _81
REMARK   36  A    between atoms: _83  and  _85
REMARK   37  A    between atoms: _85  and  _86
REMARK   38  A    between atoms: _88  and  _90
REMARK   39  A    between atoms: _90  and  _91
REMARK   40  A    between atoms: _90  and  _93
REMARK   41  A    between atoms: _93  and  _94
REMARK   42  A    between atoms: _94  and  _95
REMARK   43  A    between atoms: _95  and  _96
REMARK   44  A    between atoms: _96  and  _97
REMARK   45  A    between atoms: _101  and  _103
REMARK   46  A    between atoms: _103  and  _104
REMARK   47  A    between atoms: _103  and  _106
REMARK   48  A    between atoms: _106  and  _107
REMARK   49  A    between atoms: _110  and  _112
REMARK   50  A    between atoms: _112  and  _113
REMARK   51  A    between atoms: _112  and  _115
REMARK   52  A    between atoms: _115  and  _116
REMARK   53  A    between atoms: _116  and  _117
REMARK   54  A    between atoms: _117  and  _118
REMARK   55  A    between atoms: _118  and  _119
REMARK   56  A    between atoms: _123  and  _125
REMARK   57  A    between atoms: _125  and  _126
REMARK   58  A    between atoms: _125  and  _128
REMARK   59  A    between atoms: _128  and  _129
REMARK   60  A    between atoms: _134  and  _136
REMARK   61  A    between atoms: _136  and  _137
REMARK   62  A    between atoms: _136  and  _139
REMARK   63  A    between atoms: _139  and  _140
REMARK   64  A    between atoms: _150  and  _152
REMARK   65  A    between atoms: _152  and  _153
REMARK   66  A    between atoms: _152  and  _155
REMARK   67  A    between atoms: _155  and  _156
REMARK   68  A    between atoms: _156  and  _157
REMARK   69  A    between atoms: _161  and  _162
REMARK   70  A    between atoms: _167  and  _169
REMARK   71  A    between atoms: _169  and  _170
REMARK   72  A    between atoms: _172  and  _174
REMARK   73  A    between atoms: _174  and  _175
REMARK   74  A    between atoms: _174  and  _177
REMARK   75  A    between atoms: _177  and  _178
REMARK   76  A    between atoms: _181  and  _183
REMARK   77  A    between atoms: _183  and  _184
REMARK   78  A    between atoms: _183  and  _186
REMARK   79  A    between atoms: _186  and  _187
REMARK   80  A    between atoms: _187  and  _188
REMARK   81  A    between atoms: _188  and  _189
REMARK   82  A    between atoms: _198  and  _200
REMARK   83  A    between atoms: _200  and  _201
REMARK   84  A    between atoms: _204  and  _206
REMARK   85  A    between atoms: _206  and  _207
REMARK   86  A    between atoms: _206  and  _209
REMARK   87  A    between atoms: _209  and  _210
REMARK   88  A    between atoms: _212  and  _214
REMARK   89  A    between atoms: _214  and  _215
REMARK   90  A    between atoms: _214  and  _217
REMARK   91  A    between atoms: _217  and  _218
REMARK   92  A    between atoms: _218  and  _219
REMARK   93  A    between atoms: _222  and  _224
REMARK   94  A    between atoms: _224  and  _225
REMARK   95  A    between atoms: _224  and  _227
REMARK   96  A    between atoms: _227  and  _228
REMARK   97  A    between atoms: _233  and  _235
REMARK   98  A    between atoms: _235  and  _236
REMARK   99  A    between atoms: _235  and  _238
REMARK  100  A    between atoms: _238  and  _239
REMARK  101  A    between atoms: _239  and  _240
REMARK  102  A    between atoms: _240  and  _241
REMARK  103  A    between atoms: _250  and  _252
REMARK  104  A    between atoms: _252  and  _253
REMARK  105  A    between atoms: _252  and  _255
REMARK  106  A    between atoms: _255  and  _256
REMARK  107  A    between atoms: _261  and  _263
REMARK  108  A    between atoms: _263  and  _264
REMARK  109  A    between atoms: _263  and  _266
REMARK  110  A    between atoms: _266  and  _267
REMARK                            x       y       z     vdW  Elec       q    Type
REMARK                         _______ _______ _______ _____ _____    ______ ____
ROOT
ATOM      1  O   HOH     1      30.001  31.039  21.189  0.00  0.00    +0.000 OA
ENDROOT
TORSDOF 0
REMARK  Name = ../refined-set-2016/4j47/4j47_pocket.pdb
REMARK  110 active torsions:
REMARK  status: ('A' for Active; 'I' for Inactive)
REMARK    1  A    between atoms: _1  and  _3
REMARK    2  A    between atoms: _3  and  _4
REMARK    3  A    between atoms: _3  and  _6
REMARK    4  A    between atoms: _6  and  _7
REMARK    5  A    between atoms: _10  and  _12
REMARK    6  A    between atoms: _12  and  _13
REMARK    7  A    between atoms: _12  and  _15
REMARK    8  A    between atoms: _15  and  _16
REMARK    9  A    between atoms: _19  and  _21
REMARK   10  A    between atoms: _21  and  _22
REMARK   11  A    between atoms: _21  and  _24
REMARK   12  A    between atoms: _24  and  _25
REMARK   13  A    between atoms: _28  and  _30
REMARK   14  A    between atoms: _30  and  _31
REMARK   15  A    between atoms: _30  and  _33
REMARK   16  A    between atoms: _33  and  _34
REMARK   17  A    between atoms: _37  and  _39
REMARK   18  A    between atoms: _39  and  _40
REMARK   19  A    between atoms: _39  and  _42
REMARK   20  A    between atoms: _42  and  _43
REMARK   21  A    between atoms: _46  and  _48
REMARK   22  A    between atoms: _48  and  _49
REMARK   23  A    between atoms: _48  and  _51
REMARK   24  A    between atoms: _51  and  _52
REMARK   25  A    between atoms: _52  and  _53
REMARK   26  A    between atoms: _58  and  _60
REMARK   27  A    between atoms: _60  and  _61
REMARK   28  A    between atoms: _60  and  _63
REMARK   29  A    between atoms: _66  and  _68
REMARK   30  A    between atoms: _68  and  _69
REMARK   31  A    between atoms: _68  and  _71
REMARK   32  A    between atoms: _71  and  _72
REMARK   33  A    between atoms: _72  and  _73
REMARK   34  A    between atoms: _78  and  _80
REMARK   35  A    between atoms: _80  and  _81
REMARK   36  A    between atoms: _83  and  _85
REMARK   37  A    between atoms: _85  and  _86
REMARK   38  A    between atoms: _88  and  _90
REMARK   39  A    between atoms: _90  and  _91
REMARK   40  A    between atoms: _90  and  _93
REMARK   41  A    between atoms: _93  and  _94
REMARK   42  A    between atoms: _94  and  _95
REMARK   43  A    between atoms: _95  and  _96
REMARK   44  A    between atoms: _96  and  _97
REMARK   45  A    between atoms: _101  and  _103
REMARK   46  A    between atoms: _103  and  _104
REMARK   47  A    between atoms: _103  and  _106
REMARK   48  A    between atoms: _106  and  _107
REMARK   49  A    between atoms: _110  and  _112
REMARK   50  A    between atoms: _112  and  _113
REMARK   51  A    between atoms: _112  and  _115
REMARK   52  A    between atoms: _115  and  _116
REMARK   53  A    between atoms: _116  and  _117
REMARK   54  A    between atoms: _117  and  _118
REMARK   55  A    between atoms: _118  and  _119
REMARK   56  A    between atoms: _123  and  _125
REMARK   57  A    between atoms: _125  and  _126
REMARK   58  A    between atoms: _125  and  _128
REMARK   59  A    between atoms: _128  and  _129
REMARK   60  A    between atoms: _134  and  _136
REMARK   61  A    between atoms: _136  and  _137
REMARK   62  A    between atoms: _136  and  _139
REMARK   63  A    between atoms: _139  and  _140
REMARK   64  A    between atoms: _150  and  _152
REMARK   65  A    between atoms: _152  and  _153
REMARK   66  A    between atoms: _152  and  _155
REMARK   67  A    between atoms: _155  and  _156
REMARK   68  A    between atoms: _156  and  _157
REMARK   69  A    between atoms: _161  and  _162
REMARK   70  A    between atoms: _167  and  _169
REMARK   71  A    between atoms: _169  and  _170
REMARK   72  A    between atoms: _172  and  _174
REMARK   73  A    between atoms: _174  and  _175
REMARK   74  A    between atoms: _174  and  _177
REMARK   75  A    between atoms: _177  and  _178
REMARK   76  A    between atoms: _181  and  _183
REMARK   77  A    between atoms: _183  and  _184
REMARK   78  A    between atoms: _183  and  _186
REMARK   79  A    between atoms: _186  and  _187
REMARK   80  A    between atoms: _187  and  _188
REMARK   81  A    between atoms: _188  and  _189
REMARK   82  A    between atoms: _198  and  _200
REMARK   83  A    between atoms: _200  and  _201
REMARK   84  A    between atoms: _204  and  _206
REMARK   85  A    between atoms: _206  and  _207
REMARK   86  A    between atoms: _206  and  _209
REMARK   87  A    between atoms: _209  and  _210
REMARK   88  A    between atoms: _212  and  _214
REMARK   89  A    between atoms: _214  and  _215
REMARK   90  A    between atoms: _214  and  _217
REMARK   91  A    between atoms: _217  and  _218
REMARK   92  A    between atoms: _218  and  _219
REMARK   93  A    between atoms: _222  and  _224
REMARK   94  A    between atoms: _224  and  _225
REMARK   95  A    between atoms: _224  and  _227
REMARK   96  A    between atoms: _227  and  _228
REMARK   97  A    between atoms: _233  and  _235
REMARK   98  A    between atoms: _235  and  _236
REMARK   99  A    between atoms: _235  and  _238
REMARK  100  A    between atoms: _238  and  _239
REMARK  101  A    between atoms: _239  and  _240
REMARK  102  A    between atoms: _240  and  _241
REMARK  103  A    between atoms: _250  and  _252
REMARK  104  A    between atoms: _252  and  _253
REMARK  105  A    between atoms: _252  and  _255
REMARK  106  A    between atoms: _255  and  _256
REMARK  107  A    between atoms: _261  and  _263
REMARK  108  A    between atoms: _263  and  _264
REMARK  109  A    between atoms: _263  and  _266
REMARK  110  A    between atoms: _266  and  _267
REMARK                            x       y       z     vdW  Elec       q    Type
REMARK                         _______ _______ _______ _____ _____    ______ ____
ROOT
ATOM      1  O   HOH     1      27.225  35.018  23.414  0.00  0.00    +0.000 OA
ENDROOT
TORSDOF 0
REMARK  Name = ../refined-set-2016/4j47/4j47_pocket.pdb
REMARK  110 active torsions:
REMARK  status: ('A' for Active; 'I' for Inactive)
REMARK    1  A    between atoms: _1  and  _3
REMARK    2  A    between atoms: _3  and  _4
REMARK    3  A    between atoms: _3  and  _6
REMARK    4  A    between atoms: _6  and  _7
REMARK    5  A    between atoms: _10  and  _12
REMARK    6  A    between atoms: _12  and  _13
REMARK    7  A    between atoms: _12  and  _15
REMARK    8  A    between atoms: _15  and  _16
REMARK    9  A    between atoms: _19  and  _21
REMARK   10  A    between atoms: _21  and  _22
REMARK   11  A    between atoms: _21  and  _24
REMARK   12  A    between atoms: _24  and  _25
REMARK   13  A    between atoms: _28  and  _30
REMARK   14  A    between atoms: _30  and  _31
REMARK   15  A    between atoms: _30  and  _33
REMARK   16  A    between atoms: _33  and  _34
REMARK   17  A    between atoms: _37  and  _39
REMARK   18  A    between atoms: _39  and  _40
REMARK   19  A    between atoms: _39  and  _42
REMARK   20  A    between atoms: _42  and  _43
REMARK   21  A    between atoms: _46  and  _48
REMARK   22  A    between atoms: _48  and  _49
REMARK   23  A    between atoms: _48  and  _51
REMARK   24  A    between atoms: _51  and  _52
REMARK   25  A    between atoms: _52  and  _53
REMARK   26  A    between atoms: _58  and  _60
REMARK   27  A    between atoms: _60  and  _61
REMARK   28  A    between atoms: _60  and  _63
REMARK   29  A    between atoms: _66  and  _68
REMARK   30  A    between atoms: _68  and  _69
REMARK   31  A    between atoms: _68  and  _71
REMARK   32  A    between atoms: _71  and  _72
REMARK   33  A    between atoms: _72  and  _73
REMARK   34  A    between atoms: _78  and  _80
REMARK   35  A    between atoms: _80  and  _81
REMARK   36  A    between atoms: _83  and  _85
REMARK   37  A    between atoms: _85  and  _86
REMARK   38  A    between atoms: _88  and  _90
REMARK   39  A    between atoms: _90  and  _91
REMARK   40  A    between atoms: _90  and  _93
REMARK   41  A    between atoms: _93  and  _94
REMARK   42  A    between atoms: _94  and  _95
REMARK   43  A    between atoms: _95  and  _96
REMARK   44  A    between atoms: _96  and  _97
REMARK   45  A    between atoms: _101  and  _103
REMARK   46  A    between atoms: _103  and  _104
REMARK   47  A    between atoms: _103  and  _106
REMARK   48  A    between atoms: _106  and  _107
REMARK   49  A    between atoms: _110  and  _112
REMARK   50  A    between atoms: _112  and  _113
REMARK   51  A    between atoms: _112  and  _115
REMARK   52  A    between atoms: _115  and  _116
REMARK   53  A    between atoms: _116  and  _117
REMARK   54  A    between atoms: _117  and  _118
REMARK   55  A    between atoms: _118  and  _119
REMARK   56  A    between atoms: _123  and  _125
REMARK   57  A    between atoms: _125  and  _126
REMARK   58  A    between atoms: _125  and  _128
REMARK   59  A    between atoms: _128  and  _129
REMARK   60  A    between atoms: _134  and  _136
REMARK   61  A    between atoms: _136  and  _137
REMARK   62  A    between atoms: _136  and  _139
REMARK   63  A    between atoms: _139  and  _140
REMARK   64  A    between atoms: _150  and  _152
REMARK   65  A    between atoms: _152  and  _153
REMARK   66  A    between atoms: _152  and  _155
REMARK   67  A    between atoms: _155  and  _156
REMARK   68  A    between atoms: _156  and  _157
REMARK   69  A    between atoms: _161  and  _162
REMARK   70  A    between atoms: _167  and  _169
REMARK   71  A    between atoms: _169  and  _170
REMARK   72  A    between atoms: _172  and  _174
REMARK   73  A    between atoms: _174  and  _175
REMARK   74  A    between atoms: _174  and  _177
REMARK   75  A    between atoms: _177  and  _178
REMARK   76  A    between atoms: _181  and  _183
REMARK   77  A    between atoms: _183  and  _184
REMARK   78  A    between atoms: _183  and  _186
REMARK   79  A    between atoms: _186  and  _187
REMARK   80  A    between atoms: _187  and  _188
REMARK   81  A    between atoms: _188  and  _189
REMARK   82  A    between atoms: _198  and  _200
REMARK   83  A    between atoms: _200  and  _201
REMARK   84  A    between atoms: _204  and  _206
REMARK   85  A    between atoms: _206  and  _207
REMARK   86  A    between atoms: _206  and  _209
REMARK   87  A    between atoms: _209  and  _210
REMARK   88  A    between atoms: _212  and  _214
REMARK   89  A    between atoms: _214  and  _215
REMARK   90  A    between atoms: _214  and  _217
REMARK   91  A    between atoms: _217  and  _218
REMARK   92  A    between atoms: _218  and  _219
REMARK   93  A    between atoms: _222  and  _224
REMARK   94  A    between atoms: _224  and  _225
REMARK   95  A    between atoms: _224  and  _227
REMARK   96  A    between atoms: _227  and  _228
REMARK   97  A    between atoms: _233  and  _235
REMARK   98  A    between atoms: _235  and  _236
REMARK   99  A    between atoms: _235  and  _238
REMARK  100  A    between atoms: _238  and  _239
REMARK  101  A    between atoms: _239  and  _240
REMARK  102  A    between atoms: _240  and  _241
REMARK  103  A    between atoms: _250  and  _252
REMARK  104  A    between atoms: _252  and  _253
REMARK  105  A    between atoms: _252  and  _255
REMARK  106  A    between atoms: _255  and  _256
REMARK  107  A    between atoms: _261  and  _263
REMARK  108  A    between atoms: _263  and  _264
REMARK  109  A    between atoms: _263  and  _266
REMARK  110  A    between atoms: _266  and  _267
REMARK                            x       y       z     vdW  Elec       q    Type
REMARK                         _______ _______ _______ _____ _____    ______ ____
ROOT
ATOM      1  O   HOH     1      27.211  29.713  16.025  0.00  0.00    +0.000 OA
ENDROOT
TORSDOF 0
REMARK  Name = ../refined-set-2016/4j47/4j47_pocket.pdb
REMARK  110 active torsions:
REMARK  status: ('A' for Active; 'I' for Inactive)
REMARK    1  A    between atoms: _1  and  _3
REMARK    2  A    between atoms: _3  and  _4
REMARK    3  A    between atoms: _3  and  _6
REMARK    4  A    between atoms: _6  and  _7
REMARK    5  A    between atoms: _10  and  _12
REMARK    6  A    between atoms: _12  and  _13
REMARK    7  A    between atoms: _12  and  _15
REMARK    8  A    between atoms: _15  and  _16
REMARK    9  A    between atoms: _19  and  _21
REMARK   10  A    between atoms: _21  and  _22
REMARK   11  A    between atoms: _21  and  _24
REMARK   12  A    between atoms: _24  and  _25
REMARK   13  A    between atoms: _28  and  _30
REMARK   14  A    between atoms: _30  and  _31
REMARK   15  A    between atoms: _30  and  _33
REMARK   16  A    between atoms: _33  and  _34
REMARK   17  A    between atoms: _37  and  _39
REMARK   18  A    between atoms: _39  and  _40
REMARK   19  A    between atoms: _39  and  _42
REMARK   20  A    between atoms: _42  and  _43
REMARK   21  A    between atoms: _46  and  _48
REMARK   22  A    between atoms: _48  and  _49
REMARK   23  A    between atoms: _48  and  _51
REMARK   24  A    between atoms: _51  and  _52
REMARK   25  A    between atoms: _52  and  _53
REMARK   26  A    between atoms: _58  and  _60
REMARK   27  A    between atoms: _60  and  _61
REMARK   28  A    between atoms: _60  and  _63
REMARK   29  A    between atoms: _66  and  _68
REMARK   30  A    between atoms: _68  and  _69
REMARK   31  A    between atoms: _68  and  _71
REMARK   32  A    between atoms: _71  and  _72
REMARK   33  A    between atoms: _72  and  _73
REMARK   34  A    between atoms: _78  and  _80
REMARK   35  A    between atoms: _80  and  _81
REMARK   36  A    between atoms: _83  and  _85
REMARK   37  A    between atoms: _85  and  _86
REMARK   38  A    between atoms: _88  and  _90
REMARK   39  A    between atoms: _90  and  _91
REMARK   40  A    between atoms: _90  and  _93
REMARK   41  A    between atoms: _93  and  _94
REMARK   42  A    between atoms: _94  and  _95
REMARK   43  A    between atoms: _95  and  _96
REMARK   44  A    between atoms: _96  and  _97
REMARK   45  A    between atoms: _101  and  _103
REMARK   46  A    between atoms: _103  and  _104
REMARK   47  A    between atoms: _103  and  _106
REMARK   48  A    between atoms: _106  and  _107
REMARK   49  A    between atoms: _110  and  _112
REMARK   50  A    between atoms: _112  and  _113
REMARK   51  A    between atoms: _112  and  _115
REMARK   52  A    between atoms: _115  and  _116
REMARK   53  A    between atoms: _116  and  _117
REMARK   54  A    between atoms: _117  and  _118
REMARK   55  A    between atoms: _118  and  _119
REMARK   56  A    between atoms: _123  and  _125
REMARK   57  A    between atoms: _125  and  _126
REMARK   58  A    between atoms: _125  and  _128
REMARK   59  A    between atoms: _128  and  _129
REMARK   60  A    between atoms: _134  and  _136
REMARK   61  A    between atoms: _136  and  _137
REMARK   62  A    between atoms: _136  and  _139
REMARK   63  A    between atoms: _139  and  _140
REMARK   64  A    between atoms: _150  and  _152
REMARK   65  A    between atoms: _152  and  _153
REMARK   66  A    between atoms: _152  and  _155
REMARK   67  A    between atoms: _155  and  _156
REMARK   68  A    between atoms: _156  and  _157
REMARK   69  A    between atoms: _161  and  _162
REMARK   70  A    between atoms: _167  and  _169
REMARK   71  A    between atoms: _169  and  _170
REMARK   72  A    between atoms: _172  and  _174
REMARK   73  A    between atoms: _174  and  _175
REMARK   74  A    between atoms: _174  and  _177
REMARK   75  A    between atoms: _177  and  _178
REMARK   76  A    between atoms: _181  and  _183
REMARK   77  A    between atoms: _183  and  _184
REMARK   78  A    between atoms: _183  and  _186
REMARK   79  A    between atoms: _186  and  _187
REMARK   80  A    between atoms: _187  and  _188
REMARK   81  A    between atoms: _188  and  _189
REMARK   82  A    between atoms: _198  and  _200
REMARK   83  A    between atoms: _200  and  _201
REMARK   84  A    between atoms: _204  and  _206
REMARK   85  A    between atoms: _206  and  _207
REMARK   86  A    between atoms: _206  and  _209
REMARK   87  A    between atoms: _209  and  _210
REMARK   88  A    between atoms: _212  and  _214
REMARK   89  A    between atoms: _214  and  _215
REMARK   90  A    between atoms: _214  and  _217
REMARK   91  A    between atoms: _217  and  _218
REMARK   92  A    between atoms: _218  and  _219
REMARK   93  A    between atoms: _222  and  _224
REMARK   94  A    between atoms: _224  and  _225
REMARK   95  A    between atoms: _224  and  _227
REMARK   96  A    between atoms: _227  and  _228
REMARK   97  A    between atoms: _233  and  _235
REMARK   98  A    between atoms: _235  and  _236
REMARK   99  A    between atoms: _235  and  _238
REMARK  100  A    between atoms: _238  and  _239
REMARK  101  A    between atoms: _239  and  _240
REMARK  102  A    between atoms: _240  and  _241
REMARK  103  A    between atoms: _250  and  _252
REMARK  104  A    between atoms: _252  and  _253
REMARK  105  A    between atoms: _252  and  _255
REMARK  106  A    between atoms: _255  and  _256
REMARK  107  A    between atoms: _261  and  _263
REMARK  108  A    between atoms: _263  and  _264
REMARK  109  A    between atoms: _263  and  _266
REMARK  110  A    between atoms: _266  and  _267
REMARK                            x       y       z     vdW  Elec       q    Type
REMARK                         _______ _______ _______ _____ _____    ______ ____
ROOT
ATOM      1  O   HOH     1      32.724  28.632  16.695  0.00  0.00    +0.000 OA
ENDROOT
TORSDOF 0
REMARK  Name = ../refined-set-2016/4j47/4j47_pocket.pdb
REMARK  110 active torsions:
REMARK  status: ('A' for Active; 'I' for Inactive)
REMARK    1  A    between atoms: _1  and  _3
REMARK    2  A    between atoms: _3  and  _4
REMARK    3  A    between atoms: _3  and  _6
REMARK    4  A    between atoms: _6  and  _7
REMARK    5  A    between atoms: _10  and  _12
REMARK    6  A    between atoms: _12  and  _13
REMARK    7  A    between atoms: _12  and  _15
REMARK    8  A    between atoms: _15  and  _16
REMARK    9  A    between atoms: _19  and  _21
REMARK   10  A    between atoms: _21  and  _22
REMARK   11  A    between atoms: _21  and  _24
REMARK   12  A    between atoms: _24  and  _25
REMARK   13  A    between atoms: _28  and  _30
REMARK   14  A    between atoms: _30  and  _31
REMARK   15  A    between atoms: _30  and  _33
REMARK   16  A    between atoms: _33  and  _34
REMARK   17  A    between atoms: _37  and  _39
REMARK   18  A    between atoms: _39  and  _40
REMARK   19  A    between atoms: _39  and  _42
REMARK   20  A    between atoms: _42  and  _43
REMARK   21  A    between atoms: _46  and  _48
REMARK   22  A    between atoms: _48  and  _49
REMARK   23  A    between atoms: _48  and  _51
REMARK   24  A    between atoms: _51  and  _52
REMARK   25  A    between atoms: _52  and  _53
REMARK   26  A    between atoms: _58  and  _60
REMARK   27  A    between atoms: _60  and  _61
REMARK   28  A    between atoms: _60  and  _63
REMARK   29  A    between atoms: _66  and  _68
REMARK   30  A    between atoms: _68  and  _69
REMARK   31  A    between atoms: _68  and  _71
REMARK   32  A    between atoms: _71  and  _72
REMARK   33  A    between atoms: _72  and  _73
REMARK   34  A    between atoms: _78  and  _80
REMARK   35  A    between atoms: _80  and  _81
REMARK   36  A    between atoms: _83  and  _85
REMARK   37  A    between atoms: _85  and  _86
REMARK   38  A    between atoms: _88  and  _90
REMARK   39  A    between atoms: _90  and  _91
REMARK   40  A    between atoms: _90  and  _93
REMARK   41  A    between atoms: _93  and  _94
REMARK   42  A    between atoms: _94  and  _95
REMARK   43  A    between atoms: _95  and  _96
REMARK   44  A    between atoms: _96  and  _97
REMARK   45  A    between atoms: _101  and  _103
REMARK   46  A    between atoms: _103  and  _104
REMARK   47  A    between atoms: _103  and  _106
REMARK   48  A    between atoms: _106  and  _107
REMARK   49  A    between atoms: _110  and  _112
REMARK   50  A    between atoms: _112  and  _113
REMARK   51  A    between atoms: _112  and  _115
REMARK   52  A    between atoms: _115  and  _116
REMARK   53  A    between atoms: _116  and  _117
REMARK   54  A    between atoms: _117  and  _118
REMARK   55  A    between atoms: _118  and  _119
REMARK   56  A    between atoms: _123  and  _125
REMARK   57  A    between atoms: _125  and  _126
REMARK   58  A    between atoms: _125  and  _128
REMARK   59  A    between atoms: _128  and  _129
REMARK   60  A    between atoms: _134  and  _136
REMARK   61  A    between atoms: _136  and  _137
REMARK   62  A    between atoms: _136  and  _139
REMARK   63  A    between atoms: _139  and  _140
REMARK   64  A    between atoms: _150  and  _152
REMARK   65  A    between atoms: _152  and  _153
REMARK   66  A    between atoms: _152  and  _155
REMARK   67  A    between atoms: _155  and  _156
REMARK   68  A    between atoms: _156  and  _157
REMARK   69  A    between atoms: _161  and  _162
REMARK   70  A    between atoms: _167  and  _169
REMARK   71  A    between atoms: _169  and  _170
REMARK   72  A    between atoms: _172  and  _174
REMARK   73  A    between atoms: _174  and  _175
REMARK   74  A    between atoms: _174  and  _177
REMARK   75  A    between atoms: _177  and  _178
REMARK   76  A    between atoms: _181  and  _183
REMARK   77  A    between atoms: _183  and  _184
REMARK   78  A    between atoms: _183  and  _186
REMARK   79  A    between atoms: _186  and  _187
REMARK   80  A    between atoms: _187  and  _188
REMARK   81  A    between atoms: _188  and  _189
REMARK   82  A    between atoms: _198  and  _200
REMARK   83  A    between atoms: _200  and  _201
REMARK   84  A    between atoms: _204  and  _206
REMARK   85  A    between atoms: _206  and  _207
REMARK   86  A    between atoms: _206  and  _209
REMARK   87  A    between atoms: _209  and  _210
REMARK   88  A    between atoms: _212  and  _214
REMARK   89  A    between atoms: _214  and  _215
REMARK   90  A    between atoms: _214  and  _217
REMARK   91  A    between atoms: _217  and  _218
REMARK   92  A    between atoms: _218  and  _219
REMARK   93  A    between atoms: _222  and  _224
REMARK   94  A    between atoms: _224  and  _225
REMARK   95  A    between atoms: _224  and  _227
REMARK   96  A    between atoms: _227  and  _228
REMARK   97  A    between atoms: _233  and  _235
REMARK   98  A    between atoms: _235  and  _236
REMARK   99  A    between atoms: _235  and  _238
REMARK  100  A    between atoms: _238  and  _239
REMARK  101  A    between atoms: _239  and  _240
REMARK  102  A    between atoms: _240  and  _241
REMARK  103  A    between atoms: _250  and  _252
REMARK  104  A    between atoms: _252  and  _253
REMARK  105  A    between atoms: _252  and  _255
REMARK  106  A    between atoms: _255  and  _256
REMARK  107  A    between atoms: _261  and  _263
REMARK  108  A    between atoms: _263  and  _264
REMARK  109  A    between atoms: _263  and  _266
REMARK  110  A    between atoms: _266  and  _267
REMARK                            x       y       z     vdW  Elec       q    Type
REMARK                         _______ _______ _______ _____ _____    ______ ____
ROOT
ATOM      1  O   HOH     1      27.722  38.601   5.884  0.00  0.00    +0.000 OA
ENDROOT
TORSDOF 0
REMARK  Name = ../refined-set-2016/4j47/4j47_pocket.pdb
REMARK  110 active torsions:
REMARK  status: ('A' for Active; 'I' for Inactive)
REMARK    1  A    between atoms: _1  and  _3
REMARK    2  A    between atoms: _3  and  _4
REMARK    3  A    between atoms: _3  and  _6
REMARK    4  A    between atoms: _6  and  _7
REMARK    5  A    between atoms: _10  and  _12
REMARK    6  A    between atoms: _12  and  _13
REMARK    7  A    between atoms: _12  and  _15
REMARK    8  A    between atoms: _15  and  _16
REMARK    9  A    between atoms: _19  and  _21
REMARK   10  A    between atoms: _21  and  _22
REMARK   11  A    between atoms: _21  and  _24
REMARK   12  A    between atoms: _24  and  _25
REMARK   13  A    between atoms: _28  and  _30
REMARK   14  A    between atoms: _30  and  _31
REMARK   15  A    between atoms: _30  and  _33
REMARK   16  A    between atoms: _33  and  _34
REMARK   17  A    between atoms: _37  and  _39
REMARK   18  A    between atoms: _39  and  _40
REMARK   19  A    between atoms: _39  and  _42
REMARK   20  A    between atoms: _42  and  _43
REMARK   21  A    between atoms: _46  and  _48
REMARK   22  A    between atoms: _48  and  _49
REMARK   23  A    between atoms: _48  and  _51
REMARK   24  A    between atoms: _51  and  _52
REMARK   25  A    between atoms: _52  and  _53
REMARK   26  A    between atoms: _58  and  _60
REMARK   27  A    between atoms: _60  and  _61
REMARK   28  A    between atoms: _60  and  _63
REMARK   29  A    between atoms: _66  and  _68
REMARK   30  A    between atoms: _68  and  _69
REMARK   31  A    between atoms: _68  and  _71
REMARK   32  A    between atoms: _71  and  _72
REMARK   33  A    between atoms: _72  and  _73
REMARK   34  A    between atoms: _78  and  _80
REMARK   35  A    between atoms: _80  and  _81
REMARK   36  A    between atoms: _83  and  _85
REMARK   37  A    between atoms: _85  and  _86
REMARK   38  A    between atoms: _88  and  _90
REMARK   39  A    between atoms: _90  and  _91
REMARK   40  A    between atoms: _90  and  _93
REMARK   41  A    between atoms: _93  and  _94
REMARK   42  A    between atoms: _94  and  _95
REMARK   43  A    between atoms: _95  and  _96
REMARK   44  A    between atoms: _96  and  _97
REMARK   45  A    between atoms: _101  and  _103
REMARK   46  A    between atoms: _103  and  _104
REMARK   47  A    between atoms: _103  and  _106
REMARK   48  A    between atoms: _106  and  _107
REMARK   49  A    between atoms: _110  and  _112
REMARK   50  A    between atoms: _112  and  _113
REMARK   51  A    between atoms: _112  and  _115
REMARK   52  A    between atoms: _115  and  _116
REMARK   53  A    between atoms: _116  and  _117
REMARK   54  A    between atoms: _117  and  _118
REMARK   55  A    between atoms: _118  and  _119
REMARK   56  A    between atoms: _123  and  _125
REMARK   57  A    between atoms: _125  and  _126
REMARK   58  A    between atoms: _125  and  _128
REMARK   59  A    between atoms: _128  and  _129
REMARK   60  A    between atoms: _134  and  _136
REMARK   61  A    between atoms: _136  and  _137
REMARK   62  A    between atoms: _136  and  _139
REMARK   63  A    between atoms: _139  and  _140
REMARK   64  A    between atoms: _150  and  _152
REMARK   65  A    between atoms: _152  and  _153
REMARK   66  A    between atoms: _152  and  _155
REMARK   67  A    between atoms: _155  and  _156
REMARK   68  A    between atoms: _156  and  _157
REMARK   69  A    between atoms: _161  and  _162
REMARK   70  A    between atoms: _167  and  _169
REMARK   71  A    between atoms: _169  and  _170
REMARK   72  A    between atoms: _172  and  _174
REMARK   73  A    between atoms: _174  and  _175
REMARK   74  A    between atoms: _174  and  _177
REMARK   75  A    between atoms: _177  and  _178
REMARK   76  A    between atoms: _181  and  _183
REMARK   77  A    between atoms: _183  and  _184
REMARK   78  A    between atoms: _183  and  _186
REMARK   79  A    between atoms: _186  and  _187
REMARK   80  A    between atoms: _187  and  _188
REMARK   81  A    between atoms: _188  and  _189
REMARK   82  A    between atoms: _198  and  _200
REMARK   83  A    between atoms: _200  and  _201
REMARK   84  A    between atoms: _204  and  _206
REMARK   85  A    between atoms: _206  and  _207
REMARK   86  A    between atoms: _206  and  _209
REMARK   87  A    between atoms: _209  and  _210
REMARK   88  A    between atoms: _212  and  _214
REMARK   89  A    between atoms: _214  and  _215
REMARK   90  A    between atoms: _214  and  _217
REMARK   91  A    between atoms: _217  and  _218
REMARK   92  A    between atoms: _218  and  _219
REMARK   93  A    between atoms: _222  and  _224
REMARK   94  A    between atoms: _224  and  _225
REMARK   95  A    between atoms: _224  and  _227
REMARK   96  A    between atoms: _227  and  _228
REMARK   97  A    between atoms: _233  and  _235
REMARK   98  A    between atoms: _235  and  _236
REMARK   99  A    between atoms: _235  and  _238
REMARK  100  A    between atoms: _238  and  _239
REMARK  101  A    between atoms: _239  and  _240
REMARK  102  A    between atoms: _240  and  _241
REMARK  103  A    between atoms: _250  and  _252
REMARK  104  A    between atoms: _252  and  _253
REMARK  105  A    between atoms: _252  and  _255
REMARK  106  A    between atoms: _255  and  _256
REMARK  107  A    between atoms: _261  and  _263
REMARK  108  A    between atoms: _263  and  _264
REMARK  109  A    between atoms: _263  and  _266
REMARK  110  A    between atoms: _266  and  _267
REMARK                            x       y       z     vdW  Elec       q    Type
REMARK                         _______ _______ _______ _____ _____    ______ ____
ROOT
ATOM      1  O   HOH     1      29.887  27.896  15.879  0.00  0.00    +0.000 OA
ENDROOT
TORSDOF 0
REMARK  Name = ../refined-set-2016/4j47/4j47_pocket.pdb
REMARK  110 active torsions:
REMARK  status: ('A' for Active; 'I' for Inactive)
REMARK    1  A    between atoms: _1  and  _3
REMARK    2  A    between atoms: _3  and  _4
REMARK    3  A    between atoms: _3  and  _6
REMARK    4  A    between atoms: _6  and  _7
REMARK    5  A    between atoms: _10  and  _12
REMARK    6  A    between atoms: _12  and  _13
REMARK    7  A    between atoms: _12  and  _15
REMARK    8  A    between atoms: _15  and  _16
REMARK    9  A    between atoms: _19  and  _21
REMARK   10  A    between atoms: _21  and  _22
REMARK   11  A    between atoms: _21  and  _24
REMARK   12  A    between atoms: _24  and  _25
REMARK   13  A    between atoms: _28  and  _30
REMARK   14  A    between atoms: _30  and  _31
REMARK   15  A    between atoms: _30  and  _33
REMARK   16  A    between atoms: _33  and  _34
REMARK   17  A    between atoms: _37  and  _39
REMARK   18  A    between atoms: _39  and  _40
REMARK   19  A    between atoms: _39  and  _42
REMARK   20  A    between atoms: _42  and  _43
REMARK   21  A    between atoms: _46  and  _48
REMARK   22  A    between atoms: _48  and  _49
REMARK   23  A    between atoms: _48  and  _51
REMARK   24  A    between atoms: _51  and  _52
REMARK   25  A    between atoms: _52  and  _53
REMARK   26  A    between atoms: _58  and  _60
REMARK   27  A    between atoms: _60  and  _61
REMARK   28  A    between atoms: _60  and  _63
REMARK   29  A    between atoms: _66  and  _68
REMARK   30  A    between atoms: _68  and  _69
REMARK   31  A    between atoms: _68  and  _71
REMARK   32  A    between atoms: _71  and  _72
REMARK   33  A    between atoms: _72  and  _73
REMARK   34  A    between atoms: _78  and  _80
REMARK   35  A    between atoms: _80  and  _81
REMARK   36  A    between atoms: _83  and  _85
REMARK   37  A    between atoms: _85  and  _86
REMARK   38  A    between atoms: _88  and  _90
REMARK   39  A    between atoms: _90  and  _91
REMARK   40  A    between atoms: _90  and  _93
REMARK   41  A    between atoms: _93  and  _94
REMARK   42  A    between atoms: _94  and  _95
REMARK   43  A    between atoms: _95  and  _96
REMARK   44  A    between atoms: _96  and  _97
REMARK   45  A    between atoms: _101  and  _103
REMARK   46  A    between atoms: _103  and  _104
REMARK   47  A    between atoms: _103  and  _106
REMARK   48  A    between atoms: _106  and  _107
REMARK   49  A    between atoms: _110  and  _112
REMARK   50  A    between atoms: _112  and  _113
REMARK   51  A    between atoms: _112  and  _115
REMARK   52  A    between atoms: _115  and  _116
REMARK   53  A    between atoms: _116  and  _117
REMARK   54  A    between atoms: _117  and  _118
REMARK   55  A    between atoms: _118  and  _119
REMARK   56  A    between atoms: _123  and  _125
REMARK   57  A    between atoms: _125  and  _126
REMARK   58  A    between atoms: _125  and  _128
REMARK   59  A    between atoms: _128  and  _129
REMARK   60  A    between atoms: _134  and  _136
REMARK   61  A    between atoms: _136  and  _137
REMARK   62  A    between atoms: _136  and  _139
REMARK   63  A    between atoms: _139  and  _140
REMARK   64  A    between atoms: _150  and  _152
REMARK   65  A    between atoms: _152  and  _153
REMARK   66  A    between atoms: _152  and  _155
REMARK   67  A    between atoms: _155  and  _156
REMARK   68  A    between atoms: _156  and  _157
REMARK   69  A    between atoms: _161  and  _162
REMARK   70  A    between atoms: _167  and  _169
REMARK   71  A    between atoms: _169  and  _170
REMARK   72  A    between atoms: _172  and  _174
REMARK   73  A    between atoms: _174  and  _175
REMARK   74  A    between atoms: _174  and  _177
REMARK   75  A    between atoms: _177  and  _178
REMARK   76  A    between atoms: _181  and  _183
REMARK   77  A    between atoms: _183  and  _184
REMARK   78  A    between atoms: _183  and  _186
REMARK   79  A    between atoms: _186  and  _187
REMARK   80  A    between atoms: _187  and  _188
REMARK   81  A    between atoms: _188  and  _189
REMARK   82  A    between atoms: _198  and  _200
REMARK   83  A    between atoms: _200  and  _201
REMARK   84  A    between atoms: _204  and  _206
REMARK   85  A    between atoms: _206  and  _207
REMARK   86  A    between atoms: _206  and  _209
REMARK   87  A    between atoms: _209  and  _210
REMARK   88  A    between atoms: _212  and  _214
REMARK   89  A    between atoms: _214  and  _215
REMARK   90  A    between atoms: _214  and  _217
REMARK   91  A    between atoms: _217  and  _218
REMARK   92  A    between atoms: _218  and  _219
REMARK   93  A    between atoms: _222  and  _224
REMARK   94  A    between atoms: _224  and  _225
REMARK   95  A    between atoms: _224  and  _227
REMARK   96  A    between atoms: _227  and  _228
REMARK   97  A    between atoms: _233  and  _235
REMARK   98  A    between atoms: _235  and  _236
REMARK   99  A    between atoms: _235  and  _238
REMARK  100  A    between atoms: _238  and  _239
REMARK  101  A    between atoms: _239  and  _240
REMARK  102  A    between atoms: _240  and  _241
REMARK  103  A    between atoms: _250  and  _252
REMARK  104  A    between atoms: _252  and  _253
REMARK  105  A    between atoms: _252  and  _255
REMARK  106  A    between atoms: _255  and  _256
REMARK  107  A    between atoms: _261  and  _263
REMARK  108  A    between atoms: _263  and  _264
REMARK  109  A    between atoms: _263  and  _266
REMARK  110  A    between atoms: _266  and  _267
REMARK                            x       y       z     vdW  Elec       q    Type
REMARK                         _______ _______ _______ _____ _____    ______ ____
ROOT
ATOM      1  O   HOH     1      29.083  29.907  18.983  0.00  0.00    +0.000 OA
ENDROOT
TORSDOF 0
REMARK  Name = ../refined-set-2016/4j47/4j47_pocket.pdb
REMARK  110 active torsions:
REMARK  status: ('A' for Active; 'I' for Inactive)
REMARK    1  A    between atoms: _1  and  _3
REMARK    2  A    between atoms: _3  and  _4
REMARK    3  A    between atoms: _3  and  _6
REMARK    4  A    between atoms: _6  and  _7
REMARK    5  A    between atoms: _10  and  _12
REMARK    6  A    between atoms: _12  and  _13
REMARK    7  A    between atoms: _12  and  _15
REMARK    8  A    between atoms: _15  and  _16
REMARK    9  A    between atoms: _19  and  _21
REMARK   10  A    between atoms: _21  and  _22
REMARK   11  A    between atoms: _21  and  _24
REMARK   12  A    between atoms: _24  and  _25
REMARK   13  A    between atoms: _28  and  _30
REMARK   14  A    between atoms: _30  and  _31
REMARK   15  A    between atoms: _30  and  _33
REMARK   16  A    between atoms: _33  and  _34
REMARK   17  A    between atoms: _37  and  _39
REMARK   18  A    between atoms: _39  and  _40
REMARK   19  A    between atoms: _39  and  _42
REMARK   20  A    between atoms: _42  and  _43
REMARK   21  A    between atoms: _46  and  _48
REMARK   22  A    between atoms: _48  and  _49
REMARK   23  A    between atoms: _48  and  _51
REMARK   24  A    between atoms: _51  and  _52
REMARK   25  A    between atoms: _52  and  _53
REMARK   26  A    between atoms: _58  and  _60
REMARK   27  A    between atoms: _60  and  _61
REMARK   28  A    between atoms: _60  and  _63
REMARK   29  A    between atoms: _66  and  _68
REMARK   30  A    between atoms: _68  and  _69
REMARK   31  A    between atoms: _68  and  _71
REMARK   32  A    between atoms: _71  and  _72
REMARK   33  A    between atoms: _72  and  _73
REMARK   34  A    between atoms: _78  and  _80
REMARK   35  A    between atoms: _80  and  _81
REMARK   36  A    between atoms: _83  and  _85
REMARK   37  A    between atoms: _85  and  _86
REMARK   38  A    between atoms: _88  and  _90
REMARK   39  A    between atoms: _90  and  _91
REMARK   40  A    between atoms: _90  and  _93
REMARK   41  A    between atoms: _93  and  _94
REMARK   42  A    between atoms: _94  and  _95
REMARK   43  A    between atoms: _95  and  _96
REMARK   44  A    between atoms: _96  and  _97
REMARK   45  A    between atoms: _101  and  _103
REMARK   46  A    between atoms: _103  and  _104
REMARK   47  A    between atoms: _103  and  _106
REMARK   48  A    between atoms: _106  and  _107
REMARK   49  A    between atoms: _110  and  _112
REMARK   50  A    between atoms: _112  and  _113
REMARK   51  A    between atoms: _112  and  _115
REMARK   52  A    between atoms: _115  and  _116
REMARK   53  A    between atoms: _116  and  _117
REMARK   54  A    between atoms: _117  and  _118
REMARK   55  A    between atoms: _118  and  _119
REMARK   56  A    between atoms: _123  and  _125
REMARK   57  A    between atoms: _125  and  _126
REMARK   58  A    between atoms: _125  and  _128
REMARK   59  A    between atoms: _128  and  _129
REMARK   60  A    between atoms: _134  and  _136
REMARK   61  A    between atoms: _136  and  _137
REMARK   62  A    between atoms: _136  and  _139
REMARK   63  A    between atoms: _139  and  _140
REMARK   64  A    between atoms: _150  and  _152
REMARK   65  A    between atoms: _152  and  _153
REMARK   66  A    between atoms: _152  and  _155
REMARK   67  A    between atoms: _155  and  _156
REMARK   68  A    between atoms: _156  and  _157
REMARK   69  A    between atoms: _161  and  _162
REMARK   70  A    between atoms: _167  and  _169
REMARK   71  A    between atoms: _169  and  _170
REMARK   72  A    between atoms: _172  and  _174
REMARK   73  A    between atoms: _174  and  _175
REMARK   74  A    between atoms: _174  and  _177
REMARK   75  A    between atoms: _177  and  _178
REMARK   76  A    between atoms: _181  and  _183
REMARK   77  A    between atoms: _183  and  _184
REMARK   78  A    between atoms: _183  and  _186
REMARK   79  A    between atoms: _186  and  _187
REMARK   80  A    between atoms: _187  and  _188
REMARK   81  A    between atoms: _188  and  _189
REMARK   82  A    between atoms: _198  and  _200
REMARK   83  A    between atoms: _200  and  _201
REMARK   84  A    between atoms: _204  and  _206
REMARK   85  A    between atoms: _206  and  _207
REMARK   86  A    between atoms: _206  and  _209
REMARK   87  A    between atoms: _209  and  _210
REMARK   88  A    between atoms: _212  and  _214
REMARK   89  A    between atoms: _214  and  _215
REMARK   90  A    between atoms: _214  and  _217
REMARK   91  A    between atoms: _217  and  _218
REMARK   92  A    between atoms: _218  and  _219
REMARK   93  A    between atoms: _222  and  _224
REMARK   94  A    between atoms: _224  and  _225
REMARK   95  A    between atoms: _224  and  _227
REMARK   96  A    between atoms: _227  and  _228
REMARK   97  A    between atoms: _233  and  _235
REMARK   98  A    between atoms: _235  and  _236
REMARK   99  A    between atoms: _235  and  _238
REMARK  100  A    between atoms: _238  and  _239
REMARK  101  A    between atoms: _239  and  _240
REMARK  102  A    between atoms: _240  and  _241
REMARK  103  A    between atoms: _250  and  _252
REMARK  104  A    between atoms: _252  and  _253
REMARK  105  A    between atoms: _252  and  _255
REMARK  106  A    between atoms: _255  and  _256
REMARK  107  A    between atoms: _261  and  _263
REMARK  108  A    between atoms: _263  and  _264
REMARK  109  A    between atoms: _263  and  _266
REMARK  110  A    between atoms: _266  and  _267
REMARK                            x       y       z     vdW  Elec       q    Type
REMARK                         _______ _______ _______ _____ _____    ______ ____
ROOT
ATOM      1  O   HOH     1      32.758  34.498  13.669  0.00  0.00    +0.000 OA
ENDROOT
TORSDOF 0
REMARK  Name = ../refined-set-2016/4j47/4j47_pocket.pdb
REMARK  110 active torsions:
REMARK  status: ('A' for Active; 'I' for Inactive)
REMARK    1  A    between atoms: _1  and  _3
REMARK    2  A    between atoms: _3  and  _4
REMARK    3  A    between atoms: _3  and  _6
REMARK    4  A    between atoms: _6  and  _7
REMARK    5  A    between atoms: _10  and  _12
REMARK    6  A    between atoms: _12  and  _13
REMARK    7  A    between atoms: _12  and  _15
REMARK    8  A    between atoms: _15  and  _16
REMARK    9  A    between atoms: _19  and  _21
REMARK   10  A    between atoms: _21  and  _22
REMARK   11  A    between atoms: _21  and  _24
REMARK   12  A    between atoms: _24  and  _25
REMARK   13  A    between atoms: _28  and  _30
REMARK   14  A    between atoms: _30  and  _31
REMARK   15  A    between atoms: _30  and  _33
REMARK   16  A    between atoms: _33  and  _34
REMARK   17  A    between atoms: _37  and  _39
REMARK   18  A    between atoms: _39  and  _40
REMARK   19  A    between atoms: _39  and  _42
REMARK   20  A    between atoms: _42  and  _43
REMARK   21  A    between atoms: _46  and  _48
REMARK   22  A    between atoms: _48  and  _49
REMARK   23  A    between atoms: _48  and  _51
REMARK   24  A    between atoms: _51  and  _52
REMARK   25  A    between atoms: _52  and  _53
REMARK   26  A    between atoms: _58  and  _60
REMARK   27  A    between atoms: _60  and  _61
REMARK   28  A    between atoms: _60  and  _63
REMARK   29  A    between atoms: _66  and  _68
REMARK   30  A    between atoms: _68  and  _69
REMARK   31  A    between atoms: _68  and  _71
REMARK   32  A    between atoms: _71  and  _72
REMARK   33  A    between atoms: _72  and  _73
REMARK   34  A    between atoms: _78  and  _80
REMARK   35  A    between atoms: _80  and  _81
REMARK   36  A    between atoms: _83  and  _85
REMARK   37  A    between atoms: _85  and  _86
REMARK   38  A    between atoms: _88  and  _90
REMARK   39  A    between atoms: _90  and  _91
REMARK   40  A    between atoms: _90  and  _93
REMARK   41  A    between atoms: _93  and  _94
REMARK   42  A    between atoms: _94  and  _95
REMARK   43  A    between atoms: _95  and  _96
REMARK   44  A    between atoms: _96  and  _97
REMARK   45  A    between atoms: _101  and  _103
REMARK   46  A    between atoms: _103  and  _104
REMARK   47  A    between atoms: _103  and  _106
REMARK   48  A    between atoms: _106  and  _107
REMARK   49  A    between atoms: _110  and  _112
REMARK   50  A    between atoms: _112  and  _113
REMARK   51  A    between atoms: _112  and  _115
REMARK   52  A    between atoms: _115  and  _116
REMARK   53  A    between atoms: _116  and  _117
REMARK   54  A    between atoms: _117  and  _118
REMARK   55  A    between atoms: _118  and  _119
REMARK   56  A    between atoms: _123  and  _125
REMARK   57  A    between atoms: _125  and  _126
REMARK   58  A    between atoms: _125  and  _128
REMARK   59  A    between atoms: _128  and  _129
REMARK   60  A    between atoms: _134  and  _136
REMARK   61  A    between atoms: _136  and  _137
REMARK   62  A    between atoms: _136  and  _139
REMARK   63  A    between atoms: _139  and  _140
REMARK   64  A    between atoms: _150  and  _152
REMARK   65  A    between atoms: _152  and  _153
REMARK   66  A    between atoms: _152  and  _155
REMARK   67  A    between atoms: _155  and  _156
REMARK   68  A    between atoms: _156  and  _157
REMARK   69  A    between atoms: _161  and  _162
REMARK   70  A    between atoms: _167  and  _169
REMARK   71  A    between atoms: _169  and  _170
REMARK   72  A    between atoms: _172  and  _174
REMARK   73  A    between atoms: _174  and  _175
REMARK   74  A    between atoms: _174  and  _177
REMARK   75  A    between atoms: _177  and  _178
REMARK   76  A    between atoms: _181  and  _183
REMARK   77  A    between atoms: _183  and  _184
REMARK   78  A    between atoms: _183  and  _186
REMARK   79  A    between atoms: _186  and  _187
REMARK   80  A    between atoms: _187  and  _188
REMARK   81  A    between atoms: _188  and  _189
REMARK   82  A    between atoms: _198  and  _200
REMARK   83  A    between atoms: _200  and  _201
REMARK   84  A    between atoms: _204  and  _206
REMARK   85  A    between atoms: _206  and  _207
REMARK   86  A    between atoms: _206  and  _209
REMARK   87  A    between atoms: _209  and  _210
REMARK   88  A    between atoms: _212  and  _214
REMARK   89  A    between atoms: _214  and  _215
REMARK   90  A    between atoms: _214  and  _217
REMARK   91  A    between atoms: _217  and  _218
REMARK   92  A    between atoms: _218  and  _219
REMARK   93  A    between atoms: _222  and  _224
REMARK   94  A    between atoms: _224  and  _225
REMARK   95  A    between atoms: _224  and  _227
REMARK   96  A    between atoms: _227  and  _228
REMARK   97  A    between atoms: _233  and  _235
REMARK   98  A    between atoms: _235  and  _236
REMARK   99  A    between atoms: _235  and  _238
REMARK  100  A    between atoms: _238  and  _239
REMARK  101  A    between atoms: _239  and  _240
REMARK  102  A    between atoms: _240  and  _241
REMARK  103  A    between atoms: _250  and  _252
REMARK  104  A    between atoms: _252  and  _253
REMARK  105  A    between atoms: _252  and  _255
REMARK  106  A    between atoms: _255  and  _256
REMARK  107  A    between atoms: _261  and  _263
REMARK  108  A    between atoms: _263  and  _264
REMARK  109  A    between atoms: _263  and  _266
REMARK  110  A    between atoms: _266  and  _267
REMARK                            x       y       z     vdW  Elec       q    Type
REMARK                         _______ _______ _______ _____ _____    ______ ____
ROOT
ATOM      1  O   HOH     1      33.753  32.840  16.019  0.00  0.00    +0.000 OA
ENDROOT
TORSDOF 0
