REMARK  Name = ../refined-set-2016/1f57/1f57_pocket.pdb
REMARK  142 active torsions:
REMARK  status: ('A' for Active; 'I' for Inactive)
REMARK    1  A    between atoms: _1  and  _3
REMARK    2  A    between atoms: _3  and  _4
REMARK    3  A    between atoms: _3  and  _6
REMARK    4  A    between atoms: _6  and  _7
REMARK    5  A    between atoms: _10  and  _12
REMARK    6  A    between atoms: _12  and  _13
REMARK    7  A    between atoms: _12  and  _15
REMARK    8  A    between atoms: _15  and  _16
REMARK    9  A    between atoms: _17  and  ZN_336
REMARK   10  A    between atoms: _21  and  _23
REMARK   11  A    between atoms: _23  and  _24
REMARK   12  A    between atoms: _23  and  _26
REMARK   13  A    between atoms: _26  and  _27
REMARK   14  A    between atoms: _27  and  _28
REMARK   15  A    between atoms: _28  and  _29
REMARK   16  A    between atoms: _38  and  _40
REMARK   17  A    between atoms: _40  and  _41
REMARK   18  A    between atoms: _40  and  _43
REMARK   19  A    between atoms: _43  and  _44
REMARK   20  A    between atoms: _44  and  _45
REMARK   21  A    between atoms: _45  and  _46
REMARK   22  A    between atoms: _46  and  ZN_336
REMARK   23  A    between atoms: _48  and  _50
REMARK   24  A    between atoms: _50  and  _51
REMARK   25  A    between atoms: _50  and  _53
REMARK   26  A    between atoms: _53  and  _54
REMARK   27  A    between atoms: _54  and  _55
REMARK   28  A    between atoms: _55  and  _56
REMARK   29  A    between atoms: _65  and  _67
REMARK   30  A    between atoms: _67  and  _68
REMARK   31  A    between atoms: _67  and  _70
REMARK   32  A    between atoms: _70  and  _71
REMARK   33  A    between atoms: _74  and  _76
REMARK   34  A    between atoms: _76  and  _77
REMARK   35  A    between atoms: _80  and  _82
REMARK   36  A    between atoms: _82  and  _83
REMARK   37  A    between atoms: _82  and  _85
REMARK   38  A    between atoms: _85  and  _86
REMARK   39  A    between atoms: _91  and  _93
REMARK   40  A    between atoms: _93  and  _94
REMARK   41  A    between atoms: _93  and  _96
REMARK   42  A    between atoms: _96  and  _97
REMARK   43  A    between atoms: _97  and  _98
REMARK   44  A    between atoms: _98  and  _99
REMARK   45  A    between atoms: _108  and  _110
REMARK   46  A    between atoms: _110  and  _111
REMARK   47  A    between atoms: _113  and  _115
REMARK   48  A    between atoms: _115  and  _116
REMARK   49  A    between atoms: _115  and  _118
REMARK   50  A    between atoms: _118  and  _119
REMARK   51  A    between atoms: _119  and  _120
REMARK   52  A    between atoms: _123  and  _125
REMARK   53  A    between atoms: _125  and  _126
REMARK   54  A    between atoms: _125  and  _128
REMARK   55  A    between atoms: _128  and  _129
REMARK   56  A    between atoms: _132  and  _134
REMARK   57  A    between atoms: _134  and  _135
REMARK   58  A    between atoms: _134  and  _137
REMARK   59  A    between atoms: _137  and  _138
REMARK   60  A    between atoms: _140  and  _142
REMARK   61  A    between atoms: _142  and  _143
REMARK   62  A    between atoms: _142  and  _145
REMARK   63  A    between atoms: _145  and  _146
REMARK   64  A    between atoms: _149  and  _151
REMARK   65  A    between atoms: _151  and  _152
REMARK   66  A    between atoms: _151  and  _154
REMARK   67  A    between atoms: _154  and  _155
REMARK   68  A    between atoms: _156  and  ZN_336
REMARK   69  A    between atoms: _160  and  _162
REMARK   70  A    between atoms: _162  and  _163
REMARK   71  A    between atoms: _162  and  _165
REMARK   72  A    between atoms: _165  and  _166
REMARK   73  A    between atoms: _168  and  _170
REMARK   74  A    between atoms: _170  and  _171
REMARK   75  A    between atoms: _170  and  _173
REMARK   76  A    between atoms: _173  and  _174
REMARK   77  A    between atoms: _179  and  _180
REMARK   78  A    between atoms: _182  and  _184
REMARK   79  A    between atoms: _184  and  _185
REMARK   80  A    between atoms: _184  and  _187
REMARK   81  A    between atoms: _187  and  _188
REMARK   82  A    between atoms: _190  and  _192
REMARK   83  A    between atoms: _192  and  _193
REMARK   84  A    between atoms: _192  and  _195
REMARK   85  A    between atoms: _195  and  _196
REMARK   86  A    between atoms: _199  and  _201
REMARK   87  A    between atoms: _201  and  _202
REMARK   88  A    between atoms: _201  and  _204
REMARK   89  A    between atoms: _204  and  _205
REMARK   90  A    between atoms: _208  and  _210
REMARK   91  A    between atoms: _210  and  _211
REMARK   92  A    between atoms: _210  and  _213
REMARK   93  A    between atoms: _213  and  _214
REMARK   94  A    between atoms: _217  and  _219
REMARK   95  A    between atoms: _219  and  _220
REMARK   96  A    between atoms: _219  and  _222
REMARK   97  A    between atoms: _222  and  _223
REMARK   98  A    between atoms: _226  and  _228
REMARK   99  A    between atoms: _228  and  _229
REMARK  100  A    between atoms: _228  and  _231
REMARK  101  A    between atoms: _231  and  _232
REMARK  102  A    between atoms: _237  and  _238
REMARK  103  A    between atoms: _240  and  _242
REMARK  104  A    between atoms: _242  and  _243
REMARK  105  A    between atoms: _242  and  _245
REMARK  106  A    between atoms: _245  and  _246
REMARK  107  A    between atoms: _246  and  _247
REMARK  108  A    between atoms: _252  and  _254
REMARK  109  A    between atoms: _254  and  _255
REMARK  110  A    between atoms: _258  and  _260
REMARK  111  A    between atoms: _260  and  _261
REMARK  112  A    between atoms: _260  and  _263
REMARK  113  A    between atoms: _263  and  _264
REMARK  114  A    between atoms: _266  and  _268
REMARK  115  A    between atoms: _268  and  _269
REMARK  116  A    between atoms: _271  and  _273
REMARK  117  A    between atoms: _273  and  _274
REMARK  118  A    between atoms: _276  and  _278
REMARK  119  A    between atoms: _278  and  _279
REMARK  120  A    between atoms: _278  and  _281
REMARK  121  A    between atoms: _281  and  _282
REMARK  122  A    between atoms: _284  and  _286
REMARK  123  A    between atoms: _286  and  _287
REMARK  124  A    between atoms: _286  and  _289
REMARK  125  A    between atoms: _289  and  _290
REMARK  126  A    between atoms: _293  and  _295
REMARK  127  A    between atoms: _295  and  _296
REMARK  128  A    between atoms: _295  and  _298
REMARK  129  A    between atoms: _298  and  _299
REMARK  130  A    between atoms: _305  and  _307
REMARK  131  A    between atoms: _307  and  _308
REMARK  132  A    between atoms: _307  and  _310
REMARK  133  A    between atoms: _310  and  _311
REMARK  134  A    between atoms: _311  and  _312
REMARK  135  A    between atoms: _315  and  _317
REMARK  136  A    between atoms: _317  and  _318
REMARK  137  A    between atoms: _317  and  _320
REMARK  138  A    between atoms: _320  and  _321
REMARK  139  A    between atoms: _324  and  _326
REMARK  140  A    between atoms: _326  and  _327
REMARK  141  A    between atoms: _326  and  _329
REMARK  142  A    between atoms: _329  and  _330
REMARK                            x       y       z     vdW  Elec       q    Type
REMARK                         _______ _______ _______ _____ _____    ______ ____
ROOT
ATOM      1  N   UNK A   2      11.368  -5.541  21.825  0.00  0.00    +0.000 N 
ATOM      2  C   UNK A   2      10.371  -4.809  22.288  0.00  0.00    +0.000 A 
ATOM      3  N   UNK A   2       9.544  -4.556  21.289  0.00  0.00    +0.000 NA
ATOM      4  C   UNK A   2      10.030  -5.155  20.147  0.00  0.00    +0.000 A 
ATOM      5  C   UNK A   2      11.184  -5.777  20.483  0.00  0.00    +0.000 A 
ENDROOT
BRANCH   1   6
ATOM      6 ZN   UNK A   2      12.907  -6.425  22.982  0.00  0.00    +0.000 Zn
BRANCH   6  11
ATOM      7  C   UNK A   2      13.126  -4.466  25.377  0.00  0.00    +0.000 A 
ATOM      8  C   UNK A   2      12.452  -4.185  26.521  0.00  0.00    +0.000 A 
ATOM      9  N   UNK A   2      11.371  -5.034  26.570  0.00  0.00    +0.000 NA
ATOM     10  C   UNK A   2      11.381  -5.805  25.497  0.00  0.00    +0.000 A 
ATOM     11  N   UNK A   2      12.431  -5.479  24.765  0.00  0.00    +0.000 N 
BRANCH   7  12
ATOM     12  C   UNK A   2      14.372  -3.874  24.793  0.00  0.00    +0.000 C 
BRANCH  12  13
ATOM     13  C   UNK A   2      14.483  -2.367  25.027  0.00  0.00    +0.000 C 
BRANCH  13  16
ATOM     14  C   SER A   1      12.843  -0.582  24.532  0.00  0.00    +0.000 C 
ATOM     15  O   SER A   1      12.801  -0.215  25.708  0.00  0.00    +0.000 OA
ATOM     16  N   UNK A   2      13.581  -1.623  24.122  0.00  0.00    +0.000 N 
ATOM     17  H   UNK A   2      13.517  -1.919  23.127  0.00  0.00    +0.000 HD
BRANCH  14  18
ATOM     18  CA  SER A   1      12.037   0.189  23.447  0.00  0.00    +0.000 C 
BRANCH  18  19
ATOM     19  N   SER A   1      12.754   0.061  22.187  0.00  0.00    +0.000 NA
ATOM     20  H   SER A   1      12.341  -0.456  21.384  0.00  0.00    +0.000 HD
ENDBRANCH  18  19
BRANCH  18  21
ATOM     21  CB  SER A   1      10.567  -0.263  23.317  0.00  0.00    +0.000 C 
ATOM     22  CG2 SER A   1      10.465  -1.755  23.201  0.00  0.00    +0.000 C 
BRANCH  21  23
ATOM     23  CG1 SER A   1       9.768   0.260  24.514  0.00  0.00    +0.000 C 
ATOM     24  CD1 SER A   1       8.245   0.177  24.317  0.00  0.00    +0.000 C 
ENDBRANCH  21  23
ENDBRANCH  18  21
ENDBRANCH  14  18
ENDBRANCH  13  16
BRANCH  13  25
ATOM     25  C   UNK A   2      15.846  -1.844  24.604  0.00  0.00    +0.000 C 
ATOM     26  O   UNK A   2      16.303  -2.126  23.505  0.00  0.00    +0.000 OA
ENDBRANCH  13  25
ENDBRANCH  12  13
ENDBRANCH   7  12
ENDBRANCH   6  11
BRANCH   6  27
ATOM     27  O   UNK A   2      15.103  -6.630  23.450  0.00  0.00    +0.000 OA
BRANCH  27  28
ATOM     28  C   UNK A   2      15.427  -5.978  22.445  0.00  0.00    +0.000 C 
ATOM     29  O   UNK A   2      14.592  -5.533  21.632  0.00  0.00    +0.000 OA
BRANCH  28  30
ATOM     30  C   UNK A   2      16.931  -5.736  22.220  0.00  0.00    +0.000 C 
BRANCH  30  31
ATOM     31  C   UNK A   2      17.290  -4.659  21.185  0.00  0.00    +0.000 C 
BRANCH  31  32
ATOM     32  C   UNK A   2      18.766  -4.285  21.333  0.00  0.00    +0.000 C 
BRANCH  32  33
ATOM     33  N   UNK A   2      18.955  -3.708  22.663  0.00  0.00    +0.000 N 
ATOM     34  C   SER A   1      20.125  -3.839  23.285  0.00  0.00    +0.000 C 
ATOM     35  O   SER A   1      21.076  -4.430  22.773  0.00  0.00    +0.000 OA
ATOM     36  H   UNK A   2      18.176  -3.195  23.123  0.00  0.00    +0.000 HD
BRANCH  34  37
ATOM     37  CA  SER A   1      20.254  -3.252  24.682  0.00  0.00    +0.000 C 
BRANCH  37  38
ATOM     38  N   SER A   1      19.133  -2.426  25.108  0.00  0.00    +0.000 NA
ATOM     39  H   SER A   1      18.480  -2.787  25.833  0.00  0.00    +0.000 HD
ENDBRANCH  37  38
BRANCH  37  40
ATOM     40  CB  SER A   1      20.436  -4.399  25.680  0.00  0.00    +0.000 C 
BRANCH  40  41
ATOM     41  CG  SER A   1      19.203  -5.291  25.790  0.00  0.00    +0.000 C 
BRANCH  41  42
ATOM     42  CD  SER A   1      19.569  -6.481  26.644  0.00  0.00    +0.000 C 
BRANCH  42  43
ATOM     43  NE  SER A   1      18.479  -7.433  26.838  0.00  0.00    +0.330 N 
ATOM     44  CZ  SER A   1      18.297  -8.119  27.960  0.00  0.00    +0.000 C 
ATOM     45  NH2 SER A   1      19.116  -7.929  29.007  0.00  0.00    +0.330 N 
ATOM     46 HH21 SER A   1      18.971  -8.468  29.885  0.00  0.00    +0.000 HD
ATOM     47 HH22 SER A   1      19.895  -7.243  28.940  0.00  0.00    +0.000 HD
ATOM     48  NH1 SER A   1      17.286  -8.972  28.047  0.00  0.00    +0.330 N 
ATOM     49 HH11 SER A   1      17.136  -9.513  28.922  0.00  0.00    +0.000 HD
ATOM     50 HH12 SER A   1      16.643  -9.100  27.240  0.00  0.00    +0.000 HD
ATOM     51  HE  SER A   1      17.810  -7.582  26.056  0.00  0.00    +0.000 HD
ENDBRANCH  42  43
ENDBRANCH  41  42
ENDBRANCH  40  41
ENDBRANCH  37  40
ENDBRANCH  34  37
ENDBRANCH  32  33
BRANCH  32  52
ATOM     52  C   UNK A   2      19.260  -3.301  20.277  0.00  0.00    +0.000 C 
ATOM     53  O   UNK A   2      18.509  -2.829  19.438  0.00  0.00    +0.000 OA
ENDBRANCH  32  52
ENDBRANCH  31  32
ENDBRANCH  30  31
ENDBRANCH  28  30
ENDBRANCH  27  28
ENDBRANCH   6  27
ENDBRANCH   1   6
BRANCH   5  54
ATOM     54  C   UNK A   2      12.159  -6.571  19.674  0.00  0.00    +0.000 C 
BRANCH  54  55
ATOM     55  C   UNK A   2      13.049  -5.716  18.763  0.00  0.00    +0.000 C 
BRANCH  55  56
ATOM     56  C   UNK A   2      14.123  -6.642  18.179  0.00  0.00    +0.000 C 
ATOM     57  N   SER A   4      14.932  -7.230  19.061  0.00  0.00    +0.000 N 
ATOM     58  H   SER A   4      14.880  -6.942  20.059  0.00  0.00    +0.000 HD
ATOM     59  O   UNK A   2      14.224  -6.796  16.977  0.00  0.00    +0.000 OA
BRANCH  57  60
ATOM     60  CA  SER A   4      15.896  -8.272  18.673  0.00  0.00    +0.000 C 
BRANCH  60  61
ATOM     61  C   SER A   4      16.053  -9.097  19.965  0.00  0.00    +0.000 C 
ATOM     62  O   SER A   4      15.789  -8.578  21.052  0.00  0.00    +0.000 OA
ATOM     63  N   TYR A   5      16.435 -10.370  19.882  0.00  0.00    +0.000 N 
ATOM     64  H   TYR A   5      16.528 -10.906  20.769  0.00  0.00    +0.000 HD
BRANCH  63  65
ATOM     65  CA  TYR A   5      16.732 -11.065  18.636  0.00  0.00    +0.000 C 
BRANCH  65  66
ATOM     66  C   TYR A   5      15.895 -12.354  18.623  0.00  0.00    +0.000 C 
ATOM     67  O   TYR A   5      15.193 -12.655  19.593  0.00  0.00    +0.000 OA
ATOM     68  N   SER A   6      15.986 -13.088  17.522  0.00  0.00    +0.000 N 
ATOM     69  H   SER A   6      16.554 -12.706  16.739  0.00  0.00    +0.000 HD
BRANCH  68  70
ATOM     70  CA  SER A   6      15.350 -14.395  17.319  0.00  0.00    +0.000 C 
BRANCH  70  71
ATOM     71  C   SER A   6      14.870 -14.671  15.907  0.00  0.00    +0.000 C 
ATOM     72  O   SER A   6      14.614 -15.824  15.578  0.00  0.00    +0.000 OA
ENDBRANCH  70  71
BRANCH  70  73
ATOM     73  CB  SER A   6      14.177 -14.648  18.288  0.00  0.00    +0.000 C 
BRANCH  73  74
ATOM     74  OG  SER A   6      14.702 -15.184  19.503  0.00  0.00    +0.000 OA
ATOM     75  H   SER A   6      15.337 -14.537  19.901  0.00  0.00    +0.000 HD
ENDBRANCH  73  74
ENDBRANCH  70  73
ENDBRANCH  68  70
ENDBRANCH  65  66
BRANCH  65  76
ATOM     76  CB  TYR A   5      18.238 -11.426  18.581  0.00  0.00    +0.000 C 
BRANCH  76  77
ATOM     77  CG  TYR A   5      18.699 -12.294  19.753  0.00  0.00    +0.000 A 
ATOM     78  CD2 TYR A   5      19.249 -11.721  20.899  0.00  0.00    +0.000 A 
ATOM     79  CE2 TYR A   5      19.652 -12.497  21.982  0.00  0.00    +0.000 A 
ATOM     80  CZ  TYR A   5      19.506 -13.889  21.924  0.00  0.00    +0.000 A 
ATOM     81  CE1 TYR A   5      18.965 -14.488  20.804  0.00  0.00    +0.000 A 
ATOM     82  CD1 TYR A   5      18.559 -13.687  19.716  0.00  0.00    +0.000 A 
BRANCH  80  83
ATOM     83  OH  TYR A   5      19.899 -14.647  22.992  0.00  0.00    +0.000 OA
ATOM     84  HH  TYR A   5      20.260 -14.056  23.699  0.00  0.00    +0.000 HD
ENDBRANCH  80  83
ENDBRANCH  76  77
ENDBRANCH  65  76
ENDBRANCH  63  65
ENDBRANCH  60  61
BRANCH  60  85
ATOM     85  CB  SER A   4      17.227  -7.683  18.183  0.00  0.00    +0.000 C 
BRANCH  85  86
ATOM     86  OG  SER A   4      18.095  -7.360  19.252  0.00  0.00    +0.000 OA
ATOM     87  H   SER A   4      18.937  -6.985  18.890  0.00  0.00    +0.000 HD
ENDBRANCH  85  86
ENDBRANCH  60  85
ENDBRANCH  57  60
ENDBRANCH  55  56
BRANCH  55  88
ATOM     88  N   UNK A   2      12.218  -5.182  17.685  0.00  0.00    +0.000 N 
ATOM     89  C   UNK A   2      11.888  -3.895  17.562  0.00  0.00    +0.000 C 
ATOM     90  O   UNK A   2      12.283  -2.999  18.311  0.00  0.00    +0.000 OA
ATOM     91  H   UNK A   2      11.862  -5.847  16.969  0.00  0.00    +0.000 HD
BRANCH  89  92
ATOM     92  C   UNK A   2      10.983  -3.583  16.371  0.00  0.00    +0.000 C 
BRANCH  92  93
ATOM     93  N   UNK A   2       9.792  -2.833  16.745  0.00  0.00    +0.000 N 
ATOM     94  H   UNK A   2       9.881  -1.823  16.977  0.00  0.00    +0.000 HD
ATOM     95  C   SER A   1       8.590  -3.409  16.798  0.00  0.00    +0.000 C 
ATOM     96  O   SER A   1       8.398  -4.616  16.624  0.00  0.00    +0.000 OA
BRANCH  95  97
ATOM     97  CA  SER A   1       7.422  -2.510  17.119  0.00  0.00    +0.000 C 
BRANCH  97  98
ATOM     98  N   SER A   1       6.431  -2.741  16.046  0.00  0.00    +0.000 NA
ATOM     99  H   SER A   1       5.976  -3.670  15.940  0.00  0.00    +0.000 HD
ENDBRANCH  97  98
BRANCH  97 100
ATOM    100  CB  SER A   1       6.852  -2.926  18.472  0.00  0.00    +0.000 C 
BRANCH 100 101
ATOM    101  OG  SER A   1       5.665  -2.228  18.757  0.00  0.00    +0.000 OA
ATOM    102  H   SER A   1       5.317  -2.516  19.638  0.00  0.00    +0.000 HD
ENDBRANCH 100 101
ENDBRANCH  97 100
ENDBRANCH  95  97
ENDBRANCH  92  93
BRANCH  92 103
ATOM    103  C   UNK A   2      11.812  -2.797  15.330  0.00  0.00    +0.000 C 
ATOM    104  C   UNK A   2      12.914  -3.673  14.769  0.00  0.00    +0.000 C 
BRANCH 103 105
ATOM    105  C   UNK A   2      10.911  -2.298  14.197  0.00  0.00    +0.000 C 
ATOM    106  C   UNK A   2      10.120  -3.358  13.565  0.00  0.00    +0.000 C 
ENDBRANCH 103 105
ENDBRANCH  92 103
ENDBRANCH  89  92
ENDBRANCH  55  88
ENDBRANCH  54  55
ENDBRANCH   5  54
TORSDOF 48
REMARK  Name = ../refined-set-2016/1f57/1f57_pocket.pdb
REMARK  142 active torsions:
REMARK  status: ('A' for Active; 'I' for Inactive)
REMARK    1  A    between atoms: _1  and  _3
REMARK    2  A    between atoms: _3  and  _4
REMARK    3  A    between atoms: _3  and  _6
REMARK    4  A    between atoms: _6  and  _7
REMARK    5  A    between atoms: _10  and  _12
REMARK    6  A    between atoms: _12  and  _13
REMARK    7  A    between atoms: _12  and  _15
REMARK    8  A    between atoms: _15  and  _16
REMARK    9  A    between atoms: _17  and  ZN_336
REMARK   10  A    between atoms: _21  and  _23
REMARK   11  A    between atoms: _23  and  _24
REMARK   12  A    between atoms: _23  and  _26
REMARK   13  A    between atoms: _26  and  _27
REMARK   14  A    between atoms: _27  and  _28
REMARK   15  A    between atoms: _28  and  _29
REMARK   16  A    between atoms: _38  and  _40
REMARK   17  A    between atoms: _40  and  _41
REMARK   18  A    between atoms: _40  and  _43
REMARK   19  A    between atoms: _43  and  _44
REMARK   20  A    between atoms: _44  and  _45
REMARK   21  A    between atoms: _45  and  _46
REMARK   22  A    between atoms: _46  and  ZN_336
REMARK   23  A    between atoms: _48  and  _50
REMARK   24  A    between atoms: _50  and  _51
REMARK   25  A    between atoms: _50  and  _53
REMARK   26  A    between atoms: _53  and  _54
REMARK   27  A    between atoms: _54  and  _55
REMARK   28  A    between atoms: _55  and  _56
REMARK   29  A    between atoms: _65  and  _67
REMARK   30  A    between atoms: _67  and  _68
REMARK   31  A    between atoms: _67  and  _70
REMARK   32  A    between atoms: _70  and  _71
REMARK   33  A    between atoms: _74  and  _76
REMARK   34  A    between atoms: _76  and  _77
REMARK   35  A    between atoms: _80  and  _82
REMARK   36  A    between atoms: _82  and  _83
REMARK   37  A    between atoms: _82  and  _85
REMARK   38  A    between atoms: _85  and  _86
REMARK   39  A    between atoms: _91  and  _93
REMARK   40  A    between atoms: _93  and  _94
REMARK   41  A    between atoms: _93  and  _96
REMARK   42  A    between atoms: _96  and  _97
REMARK   43  A    between atoms: _97  and  _98
REMARK   44  A    between atoms: _98  and  _99
REMARK   45  A    between atoms: _108  and  _110
REMARK   46  A    between atoms: _110  and  _111
REMARK   47  A    between atoms: _113  and  _115
REMARK   48  A    between atoms: _115  and  _116
REMARK   49  A    between atoms: _115  and  _118
REMARK   50  A    between atoms: _118  and  _119
REMARK   51  A    between atoms: _119  and  _120
REMARK   52  A    between atoms: _123  and  _125
REMARK   53  A    between atoms: _125  and  _126
REMARK   54  A    between atoms: _125  and  _128
REMARK   55  A    between atoms: _128  and  _129
REMARK   56  A    between atoms: _132  and  _134
REMARK   57  A    between atoms: _134  and  _135
REMARK   58  A    between atoms: _134  and  _137
REMARK   59  A    between atoms: _137  and  _138
REMARK   60  A    between atoms: _140  and  _142
REMARK   61  A    between atoms: _142  and  _143
REMARK   62  A    between atoms: _142  and  _145
REMARK   63  A    between atoms: _145  and  _146
REMARK   64  A    between atoms: _149  and  _151
REMARK   65  A    between atoms: _151  and  _152
REMARK   66  A    between atoms: _151  and  _154
REMARK   67  A    between atoms: _154  and  _155
REMARK   68  A    between atoms: _156  and  ZN_336
REMARK   69  A    between atoms: _160  and  _162
REMARK   70  A    between atoms: _162  and  _163
REMARK   71  A    between atoms: _162  and  _165
REMARK   72  A    between atoms: _165  and  _166
REMARK   73  A    between atoms: _168  and  _170
REMARK   74  A    between atoms: _170  and  _171
REMARK   75  A    between atoms: _170  and  _173
REMARK   76  A    between atoms: _173  and  _174
REMARK   77  A    between atoms: _179  and  _180
REMARK   78  A    between atoms: _182  and  _184
REMARK   79  A    between atoms: _184  and  _185
REMARK   80  A    between atoms: _184  and  _187
REMARK   81  A    between atoms: _187  and  _188
REMARK   82  A    between atoms: _190  and  _192
REMARK   83  A    between atoms: _192  and  _193
REMARK   84  A    between atoms: _192  and  _195
REMARK   85  A    between atoms: _195  and  _196
REMARK   86  A    between atoms: _199  and  _201
REMARK   87  A    between atoms: _201  and  _202
REMARK   88  A    between atoms: _201  and  _204
REMARK   89  A    between atoms: _204  and  _205
REMARK   90  A    between atoms: _208  and  _210
REMARK   91  A    between atoms: _210  and  _211
REMARK   92  A    between atoms: _210  and  _213
REMARK   93  A    between atoms: _213  and  _214
REMARK   94  A    between atoms: _217  and  _219
REMARK   95  A    between atoms: _219  and  _220
REMARK   96  A    between atoms: _219  and  _222
REMARK   97  A    between atoms: _222  and  _223
REMARK   98  A    between atoms: _226  and  _228
REMARK   99  A    between atoms: _228  and  _229
REMARK  100  A    between atoms: _228  and  _231
REMARK  101  A    between atoms: _231  and  _232
REMARK  102  A    between atoms: _237  and  _238
REMARK  103  A    between atoms: _240  and  _242
REMARK  104  A    between atoms: _242  and  _243
REMARK  105  A    between atoms: _242  and  _245
REMARK  106  A    between atoms: _245  and  _246
REMARK  107  A    between atoms: _246  and  _247
REMARK  108  A    between atoms: _252  and  _254
REMARK  109  A    between atoms: _254  and  _255
REMARK  110  A    between atoms: _258  and  _260
REMARK  111  A    between atoms: _260  and  _261
REMARK  112  A    between atoms: _260  and  _263
REMARK  113  A    between atoms: _263  and  _264
REMARK  114  A    between atoms: _266  and  _268
REMARK  115  A    between atoms: _268  and  _269
REMARK  116  A    between atoms: _271  and  _273
REMARK  117  A    between atoms: _273  and  _274
REMARK  118  A    between atoms: _276  and  _278
REMARK  119  A    between atoms: _278  and  _279
REMARK  120  A    between atoms: _278  and  _281
REMARK  121  A    between atoms: _281  and  _282
REMARK  122  A    between atoms: _284  and  _286
REMARK  123  A    between atoms: _286  and  _287
REMARK  124  A    between atoms: _286  and  _289
REMARK  125  A    between atoms: _289  and  _290
REMARK  126  A    between atoms: _293  and  _295
REMARK  127  A    between atoms: _295  and  _296
REMARK  128  A    between atoms: _295  and  _298
REMARK  129  A    between atoms: _298  and  _299
REMARK  130  A    between atoms: _305  and  _307
REMARK  131  A    between atoms: _307  and  _308
REMARK  132  A    between atoms: _307  and  _310
REMARK  133  A    between atoms: _310  and  _311
REMARK  134  A    between atoms: _311  and  _312
REMARK  135  A    between atoms: _315  and  _317
REMARK  136  A    between atoms: _317  and  _318
REMARK  137  A    between atoms: _317  and  _320
REMARK  138  A    between atoms: _320  and  _321
REMARK  139  A    between atoms: _324  and  _326
REMARK  140  A    between atoms: _326  and  _327
REMARK  141  A    between atoms: _326  and  _329
REMARK  142  A    between atoms: _329  and  _330
REMARK                            x       y       z     vdW  Elec       q    Type
REMARK                         _______ _______ _______ _____ _____    ______ ____
ROOT
ATOM      1  NE  ARG A   1      13.135  -7.281  28.950  0.00  0.00    -0.265 N 
ATOM      2  HE  ARG A   1      12.475  -7.022  29.711  0.00  0.00    +0.259 HD
ATOM      3  CZ  ARG A   1      12.649  -7.950  27.902  0.00  0.00    +0.342 C 
ATOM      4  NH2 ARG A   1      11.362  -8.271  27.847  0.00  0.00    -0.292 N 
ATOM      5 HH21 ARG A   1      10.725  -8.001  28.624  0.00  0.00    +0.255 HD
ATOM      6 HH22 ARG A   1      10.991  -8.792  27.027  0.00  0.00    +0.255 HD
ATOM      7  NH1 ARG A   1      13.452  -8.303  26.901  0.00  0.00    -0.292 N 
ATOM      8 HH11 ARG A   1      14.462  -8.058  26.933  0.00  0.00    +0.255 HD
ATOM      9 HH12 ARG A   1      13.069  -8.824  26.086  0.00  0.00    +0.255 HD
ENDROOT
BRANCH   1  10
ATOM     10  CD  ARG A   1      14.540  -6.889  29.096  0.00  0.00    +0.174 C 
BRANCH  10  11
ATOM     11  CG  ARG A   1      14.811  -5.366  28.927  0.00  0.00    +0.045 C 
BRANCH  11  12
ATOM     12  CB  ARG A   1      16.311  -5.094  29.155  0.00  0.00    +0.029 C 
BRANCH  12  13
ATOM     13  CA  ARG A   1      16.811  -3.640  28.979  0.00  0.00    +0.133 C 
BRANCH  13  14
ATOM     14  N   ARG A   1      18.037  -3.484  29.778  0.00  0.00    -0.239 NA
ATOM     15  H   ARG A   1      18.015  -3.751  30.783  0.00  0.00    +0.142 HD
ENDBRANCH  13  14
BRANCH  13  16
ATOM     16  C   ARG A   1      15.668  -2.674  29.320  0.00  0.00    +0.224 C 
ATOM     17  O   ARG A   1      14.922  -2.242  28.441  0.00  0.00    -0.287 OA
ENDBRANCH  13  16
ENDBRANCH  12  13
ENDBRANCH  11  12
ENDBRANCH  10  11
ENDBRANCH   1  10
TORSDOF 6
REMARK  Name = ../refined-set-2016/1f57/1f57_pocket.pdb
REMARK  142 active torsions:
REMARK  status: ('A' for Active; 'I' for Inactive)
REMARK    1  A    between atoms: _1  and  _3
REMARK    2  A    between atoms: _3  and  _4
REMARK    3  A    between atoms: _3  and  _6
REMARK    4  A    between atoms: _6  and  _7
REMARK    5  A    between atoms: _10  and  _12
REMARK    6  A    between atoms: _12  and  _13
REMARK    7  A    between atoms: _12  and  _15
REMARK    8  A    between atoms: _15  and  _16
REMARK    9  A    between atoms: _17  and  ZN_336
REMARK   10  A    between atoms: _21  and  _23
REMARK   11  A    between atoms: _23  and  _24
REMARK   12  A    between atoms: _23  and  _26
REMARK   13  A    between atoms: _26  and  _27
REMARK   14  A    between atoms: _27  and  _28
REMARK   15  A    between atoms: _28  and  _29
REMARK   16  A    between atoms: _38  and  _40
REMARK   17  A    between atoms: _40  and  _41
REMARK   18  A    between atoms: _40  and  _43
REMARK   19  A    between atoms: _43  and  _44
REMARK   20  A    between atoms: _44  and  _45
REMARK   21  A    between atoms: _45  and  _46
REMARK   22  A    between atoms: _46  and  ZN_336
REMARK   23  A    between atoms: _48  and  _50
REMARK   24  A    between atoms: _50  and  _51
REMARK   25  A    between atoms: _50  and  _53
REMARK   26  A    between atoms: _53  and  _54
REMARK   27  A    between atoms: _54  and  _55
REMARK   28  A    between atoms: _55  and  _56
REMARK   29  A    between atoms: _65  and  _67
REMARK   30  A    between atoms: _67  and  _68
REMARK   31  A    between atoms: _67  and  _70
REMARK   32  A    between atoms: _70  and  _71
REMARK   33  A    between atoms: _74  and  _76
REMARK   34  A    between atoms: _76  and  _77
REMARK   35  A    between atoms: _80  and  _82
REMARK   36  A    between atoms: _82  and  _83
REMARK   37  A    between atoms: _82  and  _85
REMARK   38  A    between atoms: _85  and  _86
REMARK   39  A    between atoms: _91  and  _93
REMARK   40  A    between atoms: _93  and  _94
REMARK   41  A    between atoms: _93  and  _96
REMARK   42  A    between atoms: _96  and  _97
REMARK   43  A    between atoms: _97  and  _98
REMARK   44  A    between atoms: _98  and  _99
REMARK   45  A    between atoms: _108  and  _110
REMARK   46  A    between atoms: _110  and  _111
REMARK   47  A    between atoms: _113  and  _115
REMARK   48  A    between atoms: _115  and  _116
REMARK   49  A    between atoms: _115  and  _118
REMARK   50  A    between atoms: _118  and  _119
REMARK   51  A    between atoms: _119  and  _120
REMARK   52  A    between atoms: _123  and  _125
REMARK   53  A    between atoms: _125  and  _126
REMARK   54  A    between atoms: _125  and  _128
REMARK   55  A    between atoms: _128  and  _129
REMARK   56  A    between atoms: _132  and  _134
REMARK   57  A    between atoms: _134  and  _135
REMARK   58  A    between atoms: _134  and  _137
REMARK   59  A    between atoms: _137  and  _138
REMARK   60  A    between atoms: _140  and  _142
REMARK   61  A    between atoms: _142  and  _143
REMARK   62  A    between atoms: _142  and  _145
REMARK   63  A    between atoms: _145  and  _146
REMARK   64  A    between atoms: _149  and  _151
REMARK   65  A    between atoms: _151  and  _152
REMARK   66  A    between atoms: _151  and  _154
REMARK   67  A    between atoms: _154  and  _155
REMARK   68  A    between atoms: _156  and  ZN_336
REMARK   69  A    between atoms: _160  and  _162
REMARK   70  A    between atoms: _162  and  _163
REMARK   71  A    between atoms: _162  and  _165
REMARK   72  A    between atoms: _165  and  _166
REMARK   73  A    between atoms: _168  and  _170
REMARK   74  A    between atoms: _170  and  _171
REMARK   75  A    between atoms: _170  and  _173
REMARK   76  A    between atoms: _173  and  _174
REMARK   77  A    between atoms: _179  and  _180
REMARK   78  A    between atoms: _182  and  _184
REMARK   79  A    between atoms: _184  and  _185
REMARK   80  A    between atoms: _184  and  _187
REMARK   81  A    between atoms: _187  and  _188
REMARK   82  A    between atoms: _190  and  _192
REMARK   83  A    between atoms: _192  and  _193
REMARK   84  A    between atoms: _192  and  _195
REMARK   85  A    between atoms: _195  and  _196
REMARK   86  A    between atoms: _199  and  _201
REMARK   87  A    between atoms: _201  and  _202
REMARK   88  A    between atoms: _201  and  _204
REMARK   89  A    between atoms: _204  and  _205
REMARK   90  A    between atoms: _208  and  _210
REMARK   91  A    between atoms: _210  and  _211
REMARK   92  A    between atoms: _210  and  _213
REMARK   93  A    between atoms: _213  and  _214
REMARK   94  A    between atoms: _217  and  _219
REMARK   95  A    between atoms: _219  and  _220
REMARK   96  A    between atoms: _219  and  _222
REMARK   97  A    between atoms: _222  and  _223
REMARK   98  A    between atoms: _226  and  _228
REMARK   99  A    between atoms: _228  and  _229
REMARK  100  A    between atoms: _228  and  _231
REMARK  101  A    between atoms: _231  and  _232
REMARK  102  A    between atoms: _237  and  _238
REMARK  103  A    between atoms: _240  and  _242
REMARK  104  A    between atoms: _242  and  _243
REMARK  105  A    between atoms: _242  and  _245
REMARK  106  A    between atoms: _245  and  _246
REMARK  107  A    between atoms: _246  and  _247
REMARK  108  A    between atoms: _252  and  _254
REMARK  109  A    between atoms: _254  and  _255
REMARK  110  A    between atoms: _258  and  _260
REMARK  111  A    between atoms: _260  and  _261
REMARK  112  A    between atoms: _260  and  _263
REMARK  113  A    between atoms: _263  and  _264
REMARK  114  A    between atoms: _266  and  _268
REMARK  115  A    between atoms: _268  and  _269
REMARK  116  A    between atoms: _271  and  _273
REMARK  117  A    between atoms: _273  and  _274
REMARK  118  A    between atoms: _276  and  _278
REMARK  119  A    between atoms: _278  and  _279
REMARK  120  A    between atoms: _278  and  _281
REMARK  121  A    between atoms: _281  and  _282
REMARK  122  A    between atoms: _284  and  _286
REMARK  123  A    between atoms: _286  and  _287
REMARK  124  A    between atoms: _286  and  _289
REMARK  125  A    between atoms: _289  and  _290
REMARK  126  A    between atoms: _293  and  _295
REMARK  127  A    between atoms: _295  and  _296
REMARK  128  A    between atoms: _295  and  _298
REMARK  129  A    between atoms: _298  and  _299
REMARK  130  A    between atoms: _305  and  _307
REMARK  131  A    between atoms: _307  and  _308
REMARK  132  A    between atoms: _307  and  _310
REMARK  133  A    between atoms: _310  and  _311
REMARK  134  A    between atoms: _311  and  _312
REMARK  135  A    between atoms: _315  and  _317
REMARK  136  A    between atoms: _317  and  _318
REMARK  137  A    between atoms: _317  and  _320
REMARK  138  A    between atoms: _320  and  _321
REMARK  139  A    between atoms: _324  and  _326
REMARK  140  A    between atoms: _326  and  _327
REMARK  141  A    between atoms: _326  and  _329
REMARK  142  A    between atoms: _329  and  _330
REMARK                            x       y       z     vdW  Elec       q    Type
REMARK                         _______ _______ _______ _____ _____    ______ ____
ROOT
ATOM      1  CA  ASN A   3       7.105  -3.851  26.750  0.00  0.00    +0.158 C 
ENDROOT
BRANCH   1   2
ATOM      2  C   ASN A   3       6.238  -4.804  27.575  0.00  0.00    +0.241 C 
ATOM      3  N   ARG A   4       6.071  -4.493  28.861  0.00  0.00    -0.298 N 
ATOM      4  H   ARG A   4       6.593  -3.684  29.255  0.00  0.00    +0.150 HD
ATOM      5  O   ASN A   3       5.747  -5.810  27.063  0.00  0.00    -0.273 OA
BRANCH   3   6
ATOM      6  CA  ARG A   4       5.172  -5.257  29.742  0.00  0.00    +0.137 C 
BRANCH   6   7
ATOM      7  C   ARG A   4       4.301  -4.221  30.461  0.00  0.00    +0.227 C 
ATOM      8  O   ARG A   4       3.501  -4.569  31.336  0.00  0.00    -0.286 OA
ENDBRANCH   6   7
BRANCH   6   9
ATOM      9  CB  ARG A   4       5.940  -6.061  30.809  0.00  0.00    +0.031 C 
BRANCH   9  10
ATOM     10  CG  ARG A   4       6.855  -7.173  30.261  0.00  0.00    +0.045 C 
BRANCH  10  11
ATOM     11  CD  ARG A   4       6.076  -8.264  29.585  0.00  0.00    +0.174 C 
BRANCH  11  12
ATOM     12  NE  ARG A   4       6.939  -9.408  29.261  0.00  0.00    -0.265 N 
ATOM     13  HE  ARG A   4       6.944 -10.220  29.911  0.00  0.00    +0.259 HD
ATOM     14  CZ  ARG A   4       7.716  -9.462  28.180  0.00  0.00    +0.342 C 
ATOM     15  NH2 ARG A   4       8.453 -10.538  27.939  0.00  0.00    -0.292 N 
ATOM     16 HH21 ARG A   4       8.426 -11.344  28.595  0.00  0.00    +0.255 HD
ATOM     17 HH22 ARG A   4       9.058 -10.575  27.094  0.00  0.00    +0.255 HD
ATOM     18  NH1 ARG A   4       7.737  -8.441  27.324  0.00  0.00    -0.292 N 
ATOM     19 HH11 ARG A   4       7.147  -7.603  27.500  0.00  0.00    +0.255 HD
ATOM     20 HH12 ARG A   4       8.343  -8.482  26.480  0.00  0.00    +0.255 HD
ENDBRANCH  11  12
ENDBRANCH  10  11
ENDBRANCH   9  10
ENDBRANCH   6   9
ENDBRANCH   3   6
ENDBRANCH   1   2
BRANCH   1  22
ATOM     21  C   ALA A   2       7.578  -1.787  27.888  0.00  0.00    +0.241 C 
ATOM     22  N   ASN A   3       7.984  -3.019  27.572  0.00  0.00    -0.297 N 
ATOM     23  H   ASN A   3       8.902  -3.378  27.902  0.00  0.00    +0.150 HD
ATOM     24  O   ALA A   2       6.531  -1.308  27.455  0.00  0.00    -0.273 OA
BRANCH  21  25
ATOM     25  CA  ALA A   2       8.466  -0.953  28.809  0.00  0.00    +0.149 C 
ATOM     26  CB  ALA A   2       9.137   0.176  28.030  0.00  0.00    +0.031 C 
BRANCH  25  29
ATOM     27  C   ASP A   1       9.080  -2.676  30.386  0.00  0.00    +0.239 C 
ATOM     28  O   ASP A   1       7.890  -2.973  30.539  0.00  0.00    -0.274 OA
ATOM     29  N   ALA A   2       9.466  -1.737  29.531  0.00  0.00    -0.297 N 
ATOM     30  H   ALA A   2      10.479  -1.559  29.375  0.00  0.00    +0.150 HD
BRANCH  27  31
ATOM     31  CA  ASP A   1      10.184  -3.412  31.159  0.00  0.00    +0.156 C 
BRANCH  31  32
ATOM     32  N   ASP A   1      10.101  -2.872  32.526  0.00  0.00    -0.238 NA
ATOM     33  H   ASP A   1       9.662  -3.437  33.281  0.00  0.00    +0.142 HD
ENDBRANCH  31  32
BRANCH  31  34
ATOM     34  CB  ASP A   1       9.907  -4.919  31.173  0.00  0.00    +0.140 C 
BRANCH  34  35
ATOM     35  CG  ASP A   1       9.976  -5.538  29.790  0.00  0.00    +0.367 C 
ATOM     36  OD2 ASP A   1      10.137  -6.774  29.703  0.00  0.00    -0.246 OA
ATOM     37  OD1 ASP A   1       9.865  -4.792  28.792  0.00  0.00    -0.246 OA
ENDBRANCH  34  35
ENDBRANCH  31  34
ENDBRANCH  27  31
ENDBRANCH  25  29
ENDBRANCH  21  25
ENDBRANCH   1  22
BRANCH   1  38
ATOM     38  CB  ASN A   3       7.855  -4.636  25.661  0.00  0.00    +0.114 C 
BRANCH  38  39
ATOM     39  CG  ASN A   3       6.913  -5.071  24.523  0.00  0.00    +0.222 C 
ATOM     40  OD1 ASN A   3       5.950  -4.366  24.203  0.00  0.00    -0.275 OA
ATOM     41  ND2 ASN A   3       7.173  -6.235  23.933  0.00  0.00    -0.329 N 
ATOM     42 HD21 ASN A   3       7.995  -6.798  24.233  0.00  0.00    +0.145 HD
ATOM     43 HD22 ASN A   3       6.555  -6.582  23.172  0.00  0.00    +0.145 HD
ENDBRANCH  38  39
ENDBRANCH   1  38
TORSDOF 16
REMARK  Name = ../refined-set-2016/1f57/1f57_pocket.pdb
REMARK  142 active torsions:
REMARK  status: ('A' for Active; 'I' for Inactive)
REMARK    1  A    between atoms: _1  and  _3
REMARK    2  A    between atoms: _3  and  _4
REMARK    3  A    between atoms: _3  and  _6
REMARK    4  A    between atoms: _6  and  _7
REMARK    5  A    between atoms: _10  and  _12
REMARK    6  A    between atoms: _12  and  _13
REMARK    7  A    between atoms: _12  and  _15
REMARK    8  A    between atoms: _15  and  _16
REMARK    9  A    between atoms: _17  and  ZN_336
REMARK   10  A    between atoms: _21  and  _23
REMARK   11  A    between atoms: _23  and  _24
REMARK   12  A    between atoms: _23  and  _26
REMARK   13  A    between atoms: _26  and  _27
REMARK   14  A    between atoms: _27  and  _28
REMARK   15  A    between atoms: _28  and  _29
REMARK   16  A    between atoms: _38  and  _40
REMARK   17  A    between atoms: _40  and  _41
REMARK   18  A    between atoms: _40  and  _43
REMARK   19  A    between atoms: _43  and  _44
REMARK   20  A    between atoms: _44  and  _45
REMARK   21  A    between atoms: _45  and  _46
REMARK   22  A    between atoms: _46  and  ZN_336
REMARK   23  A    between atoms: _48  and  _50
REMARK   24  A    between atoms: _50  and  _51
REMARK   25  A    between atoms: _50  and  _53
REMARK   26  A    between atoms: _53  and  _54
REMARK   27  A    between atoms: _54  and  _55
REMARK   28  A    between atoms: _55  and  _56
REMARK   29  A    between atoms: _65  and  _67
REMARK   30  A    between atoms: _67  and  _68
REMARK   31  A    between atoms: _67  and  _70
REMARK   32  A    between atoms: _70  and  _71
REMARK   33  A    between atoms: _74  and  _76
REMARK   34  A    between atoms: _76  and  _77
REMARK   35  A    between atoms: _80  and  _82
REMARK   36  A    between atoms: _82  and  _83
REMARK   37  A    between atoms: _82  and  _85
REMARK   38  A    between atoms: _85  and  _86
REMARK   39  A    between atoms: _91  and  _93
REMARK   40  A    between atoms: _93  and  _94
REMARK   41  A    between atoms: _93  and  _96
REMARK   42  A    between atoms: _96  and  _97
REMARK   43  A    between atoms: _97  and  _98
REMARK   44  A    between atoms: _98  and  _99
REMARK   45  A    between atoms: _108  and  _110
REMARK   46  A    between atoms: _110  and  _111
REMARK   47  A    between atoms: _113  and  _115
REMARK   48  A    between atoms: _115  and  _116
REMARK   49  A    between atoms: _115  and  _118
REMARK   50  A    between atoms: _118  and  _119
REMARK   51  A    between atoms: _119  and  _120
REMARK   52  A    between atoms: _123  and  _125
REMARK   53  A    between atoms: _125  and  _126
REMARK   54  A    between atoms: _125  and  _128
REMARK   55  A    between atoms: _128  and  _129
REMARK   56  A    between atoms: _132  and  _134
REMARK   57  A    between atoms: _134  and  _135
REMARK   58  A    between atoms: _134  and  _137
REMARK   59  A    between atoms: _137  and  _138
REMARK   60  A    between atoms: _140  and  _142
REMARK   61  A    between atoms: _142  and  _143
REMARK   62  A    between atoms: _142  and  _145
REMARK   63  A    between atoms: _145  and  _146
REMARK   64  A    between atoms: _149  and  _151
REMARK   65  A    between atoms: _151  and  _152
REMARK   66  A    between atoms: _151  and  _154
REMARK   67  A    between atoms: _154  and  _155
REMARK   68  A    between atoms: _156  and  ZN_336
REMARK   69  A    between atoms: _160  and  _162
REMARK   70  A    between atoms: _162  and  _163
REMARK   71  A    between atoms: _162  and  _165
REMARK   72  A    between atoms: _165  and  _166
REMARK   73  A    between atoms: _168  and  _170
REMARK   74  A    between atoms: _170  and  _171
REMARK   75  A    between atoms: _170  and  _173
REMARK   76  A    between atoms: _173  and  _174
REMARK   77  A    between atoms: _179  and  _180
REMARK   78  A    between atoms: _182  and  _184
REMARK   79  A    between atoms: _184  and  _185
REMARK   80  A    between atoms: _184  and  _187
REMARK   81  A    between atoms: _187  and  _188
REMARK   82  A    between atoms: _190  and  _192
REMARK   83  A    between atoms: _192  and  _193
REMARK   84  A    between atoms: _192  and  _195
REMARK   85  A    between atoms: _195  and  _196
REMARK   86  A    between atoms: _199  and  _201
REMARK   87  A    between atoms: _201  and  _202
REMARK   88  A    between atoms: _201  and  _204
REMARK   89  A    between atoms: _204  and  _205
REMARK   90  A    between atoms: _208  and  _210
REMARK   91  A    between atoms: _210  and  _211
REMARK   92  A    between atoms: _210  and  _213
REMARK   93  A    between atoms: _213  and  _214
REMARK   94  A    between atoms: _217  and  _219
REMARK   95  A    between atoms: _219  and  _220
REMARK   96  A    between atoms: _219  and  _222
REMARK   97  A    between atoms: _222  and  _223
REMARK   98  A    between atoms: _226  and  _228
REMARK   99  A    between atoms: _228  and  _229
REMARK  100  A    between atoms: _228  and  _231
REMARK  101  A    between atoms: _231  and  _232
REMARK  102  A    between atoms: _237  and  _238
REMARK  103  A    between atoms: _240  and  _242
REMARK  104  A    between atoms: _242  and  _243
REMARK  105  A    between atoms: _242  and  _245
REMARK  106  A    between atoms: _245  and  _246
REMARK  107  A    between atoms: _246  and  _247
REMARK  108  A    between atoms: _252  and  _254
REMARK  109  A    between atoms: _254  and  _255
REMARK  110  A    between atoms: _258  and  _260
REMARK  111  A    between atoms: _260  and  _261
REMARK  112  A    between atoms: _260  and  _263
REMARK  113  A    between atoms: _263  and  _264
REMARK  114  A    between atoms: _266  and  _268
REMARK  115  A    between atoms: _268  and  _269
REMARK  116  A    between atoms: _271  and  _273
REMARK  117  A    between atoms: _273  and  _274
REMARK  118  A    between atoms: _276  and  _278
REMARK  119  A    between atoms: _278  and  _279
REMARK  120  A    between atoms: _278  and  _281
REMARK  121  A    between atoms: _281  and  _282
REMARK  122  A    between atoms: _284  and  _286
REMARK  123  A    between atoms: _286  and  _287
REMARK  124  A    between atoms: _286  and  _289
REMARK  125  A    between atoms: _289  and  _290
REMARK  126  A    between atoms: _293  and  _295
REMARK  127  A    between atoms: _295  and  _296
REMARK  128  A    between atoms: _295  and  _298
REMARK  129  A    between atoms: _298  and  _299
REMARK  130  A    between atoms: _305  and  _307
REMARK  131  A    between atoms: _307  and  _308
REMARK  132  A    between atoms: _307  and  _310
REMARK  133  A    between atoms: _310  and  _311
REMARK  134  A    between atoms: _311  and  _312
REMARK  135  A    between atoms: _315  and  _317
REMARK  136  A    between atoms: _317  and  _318
REMARK  137  A    between atoms: _317  and  _320
REMARK  138  A    between atoms: _320  and  _321
REMARK  139  A    between atoms: _324  and  _326
REMARK  140  A    between atoms: _326  and  _327
REMARK  141  A    between atoms: _326  and  _329
REMARK  142  A    between atoms: _329  and  _330
REMARK                            x       y       z     vdW  Elec       q    Type
REMARK                         _______ _______ _______ _____ _____    ______ ____
ROOT
ATOM      1  CA  GLY A   1       3.963 -13.324  31.297  0.00  0.00    +0.156 C 
ENDROOT
BRANCH   1   2
ATOM      2  N   GLY A   1       3.156 -13.746  32.425  0.00  0.00    -0.238 NA
ATOM      3  H   GLY A   1       3.613 -14.136  33.274  0.00  0.00    +0.142 HD
ENDBRANCH   1   2
BRANCH   1   4
ATOM      4  C   GLY A   1       4.655 -12.001  31.569  0.00  0.00    +0.226 C 
ATOM      5  O   GLY A   1       5.128 -11.344  30.643  0.00  0.00    -0.287 OA
ENDBRANCH   1   4
TORSDOF 2
REMARK  Name = ../refined-set-2016/1f57/1f57_pocket.pdb
REMARK  142 active torsions:
REMARK  status: ('A' for Active; 'I' for Inactive)
REMARK    1  A    between atoms: _1  and  _3
REMARK    2  A    between atoms: _3  and  _4
REMARK    3  A    between atoms: _3  and  _6
REMARK    4  A    between atoms: _6  and  _7
REMARK    5  A    between atoms: _10  and  _12
REMARK    6  A    between atoms: _12  and  _13
REMARK    7  A    between atoms: _12  and  _15
REMARK    8  A    between atoms: _15  and  _16
REMARK    9  A    between atoms: _17  and  ZN_336
REMARK   10  A    between atoms: _21  and  _23
REMARK   11  A    between atoms: _23  and  _24
REMARK   12  A    between atoms: _23  and  _26
REMARK   13  A    between atoms: _26  and  _27
REMARK   14  A    between atoms: _27  and  _28
REMARK   15  A    between atoms: _28  and  _29
REMARK   16  A    between atoms: _38  and  _40
REMARK   17  A    between atoms: _40  and  _41
REMARK   18  A    between atoms: _40  and  _43
REMARK   19  A    between atoms: _43  and  _44
REMARK   20  A    between atoms: _44  and  _45
REMARK   21  A    between atoms: _45  and  _46
REMARK   22  A    between atoms: _46  and  ZN_336
REMARK   23  A    between atoms: _48  and  _50
REMARK   24  A    between atoms: _50  and  _51
REMARK   25  A    between atoms: _50  and  _53
REMARK   26  A    between atoms: _53  and  _54
REMARK   27  A    between atoms: _54  and  _55
REMARK   28  A    between atoms: _55  and  _56
REMARK   29  A    between atoms: _65  and  _67
REMARK   30  A    between atoms: _67  and  _68
REMARK   31  A    between atoms: _67  and  _70
REMARK   32  A    between atoms: _70  and  _71
REMARK   33  A    between atoms: _74  and  _76
REMARK   34  A    between atoms: _76  and  _77
REMARK   35  A    between atoms: _80  and  _82
REMARK   36  A    between atoms: _82  and  _83
REMARK   37  A    between atoms: _82  and  _85
REMARK   38  A    between atoms: _85  and  _86
REMARK   39  A    between atoms: _91  and  _93
REMARK   40  A    between atoms: _93  and  _94
REMARK   41  A    between atoms: _93  and  _96
REMARK   42  A    between atoms: _96  and  _97
REMARK   43  A    between atoms: _97  and  _98
REMARK   44  A    between atoms: _98  and  _99
REMARK   45  A    between atoms: _108  and  _110
REMARK   46  A    between atoms: _110  and  _111
REMARK   47  A    between atoms: _113  and  _115
REMARK   48  A    between atoms: _115  and  _116
REMARK   49  A    between atoms: _115  and  _118
REMARK   50  A    between atoms: _118  and  _119
REMARK   51  A    between atoms: _119  and  _120
REMARK   52  A    between atoms: _123  and  _125
REMARK   53  A    between atoms: _125  and  _126
REMARK   54  A    between atoms: _125  and  _128
REMARK   55  A    between atoms: _128  and  _129
REMARK   56  A    between atoms: _132  and  _134
REMARK   57  A    between atoms: _134  and  _135
REMARK   58  A    between atoms: _134  and  _137
REMARK   59  A    between atoms: _137  and  _138
REMARK   60  A    between atoms: _140  and  _142
REMARK   61  A    between atoms: _142  and  _143
REMARK   62  A    between atoms: _142  and  _145
REMARK   63  A    between atoms: _145  and  _146
REMARK   64  A    between atoms: _149  and  _151
REMARK   65  A    between atoms: _151  and  _152
REMARK   66  A    between atoms: _151  and  _154
REMARK   67  A    between atoms: _154  and  _155
REMARK   68  A    between atoms: _156  and  ZN_336
REMARK   69  A    between atoms: _160  and  _162
REMARK   70  A    between atoms: _162  and  _163
REMARK   71  A    between atoms: _162  and  _165
REMARK   72  A    between atoms: _165  and  _166
REMARK   73  A    between atoms: _168  and  _170
REMARK   74  A    between atoms: _170  and  _171
REMARK   75  A    between atoms: _170  and  _173
REMARK   76  A    between atoms: _173  and  _174
REMARK   77  A    between atoms: _179  and  _180
REMARK   78  A    between atoms: _182  and  _184
REMARK   79  A    between atoms: _184  and  _185
REMARK   80  A    between atoms: _184  and  _187
REMARK   81  A    between atoms: _187  and  _188
REMARK   82  A    between atoms: _190  and  _192
REMARK   83  A    between atoms: _192  and  _193
REMARK   84  A    between atoms: _192  and  _195
REMARK   85  A    between atoms: _195  and  _196
REMARK   86  A    between atoms: _199  and  _201
REMARK   87  A    between atoms: _201  and  _202
REMARK   88  A    between atoms: _201  and  _204
REMARK   89  A    between atoms: _204  and  _205
REMARK   90  A    between atoms: _208  and  _210
REMARK   91  A    between atoms: _210  and  _211
REMARK   92  A    between atoms: _210  and  _213
REMARK   93  A    between atoms: _213  and  _214
REMARK   94  A    between atoms: _217  and  _219
REMARK   95  A    between atoms: _219  and  _220
REMARK   96  A    between atoms: _219  and  _222
REMARK   97  A    between atoms: _222  and  _223
REMARK   98  A    between atoms: _226  and  _228
REMARK   99  A    between atoms: _228  and  _229
REMARK  100  A    between atoms: _228  and  _231
REMARK  101  A    between atoms: _231  and  _232
REMARK  102  A    between atoms: _237  and  _238
REMARK  103  A    between atoms: _240  and  _242
REMARK  104  A    between atoms: _242  and  _243
REMARK  105  A    between atoms: _242  and  _245
REMARK  106  A    between atoms: _245  and  _246
REMARK  107  A    between atoms: _246  and  _247
REMARK  108  A    between atoms: _252  and  _254
REMARK  109  A    between atoms: _254  and  _255
REMARK  110  A    between atoms: _258  and  _260
REMARK  111  A    between atoms: _260  and  _261
REMARK  112  A    between atoms: _260  and  _263
REMARK  113  A    between atoms: _263  and  _264
REMARK  114  A    between atoms: _266  and  _268
REMARK  115  A    between atoms: _268  and  _269
REMARK  116  A    between atoms: _271  and  _273
REMARK  117  A    between atoms: _273  and  _274
REMARK  118  A    between atoms: _276  and  _278
REMARK  119  A    between atoms: _278  and  _279
REMARK  120  A    between atoms: _278  and  _281
REMARK  121  A    between atoms: _281  and  _282
REMARK  122  A    between atoms: _284  and  _286
REMARK  123  A    between atoms: _286  and  _287
REMARK  124  A    between atoms: _286  and  _289
REMARK  125  A    between atoms: _289  and  _290
REMARK  126  A    between atoms: _293  and  _295
REMARK  127  A    between atoms: _295  and  _296
REMARK  128  A    between atoms: _295  and  _298
REMARK  129  A    between atoms: _298  and  _299
REMARK  130  A    between atoms: _305  and  _307
REMARK  131  A    between atoms: _307  and  _308
REMARK  132  A    between atoms: _307  and  _310
REMARK  133  A    between atoms: _310  and  _311
REMARK  134  A    between atoms: _311  and  _312
REMARK  135  A    between atoms: _315  and  _317
REMARK  136  A    between atoms: _317  and  _318
REMARK  137  A    between atoms: _317  and  _320
REMARK  138  A    between atoms: _320  and  _321
REMARK  139  A    between atoms: _324  and  _326
REMARK  140  A    between atoms: _326  and  _327
REMARK  141  A    between atoms: _326  and  _329
REMARK  142  A    between atoms: _329  and  _330
REMARK                            x       y       z     vdW  Elec       q    Type
REMARK                         _______ _______ _______ _____ _____    ______ ____
ROOT
ATOM      1  C   GLU A   1      12.727  -7.676  33.074  0.00  0.00    +0.238 C 
ATOM      2  N   THR A   2      11.681  -8.344  33.564  0.00  0.00    -0.296 N 
ATOM      3  H   THR A   2      11.804  -8.962  34.392  0.00  0.00    +0.150 HD
ATOM      4  O   GLU A   1      12.645  -6.930  32.088  0.00  0.00    -0.274 OA
ENDROOT
BRANCH   1   5
ATOM      5  CA  GLU A   1      14.072  -7.872  33.777  0.00  0.00    +0.145 C 
BRANCH   5   6
ATOM      6  N   GLU A   1      13.846  -8.442  35.102  0.00  0.00    -0.238 NA
ATOM      7  H   GLU A   1      14.116  -9.430  35.285  0.00  0.00    +0.142 HD
ENDBRANCH   5   6
BRANCH   5   8
ATOM      8  CB  GLU A   1      14.980  -8.793  32.955  0.00  0.00    +0.038 C 
BRANCH   8   9
ATOM      9  CG  GLU A   1      16.410  -8.834  33.472  0.00  0.00    +0.116 C 
BRANCH   9  10
ATOM     10  CD  GLU A   1      17.082  -7.474  33.407  0.00  0.00    +0.365 C 
ATOM     11  OE2 GLU A   1      18.083  -7.262  34.121  0.00  0.00    -0.246 OA
ATOM     12  OE1 GLU A   1      16.609  -6.614  32.640  0.00  0.00    -0.246 OA
ENDBRANCH   9  10
ENDBRANCH   8   9
ENDBRANCH   5   8
ENDBRANCH   1   5
BRANCH   2  13
ATOM     13  CA  THR A   2      10.357  -8.213  32.943  0.00  0.00    +0.164 C 
BRANCH  13  14
ATOM     14  C   THR A   2       9.341  -7.584  33.887  0.00  0.00    +0.229 C 
ATOM     15  O   THR A   2       8.143  -7.844  33.790  0.00  0.00    -0.286 OA
ENDBRANCH  13  14
BRANCH  13  16
ATOM     16  CB  THR A   2       9.817  -9.585  32.471  0.00  0.00    +0.136 C 
ATOM     17  CG2 THR A   2      10.668 -10.135  31.330  0.00  0.00    +0.034 C 
BRANCH  16  18
ATOM     18  OG1 THR A   2       9.841 -10.509  33.563  0.00  0.00    -0.382 OA
ATOM     19  HG1 THR A   2       9.495 -11.386  33.260  0.00  0.00    +0.210 HD
ENDBRANCH  16  18
ENDBRANCH  13  16
ENDBRANCH   2  13
TORSDOF 9
REMARK  Name = ../refined-set-2016/1f57/1f57_pocket.pdb
REMARK  142 active torsions:
REMARK  status: ('A' for Active; 'I' for Inactive)
REMARK    1  A    between atoms: _1  and  _3
REMARK    2  A    between atoms: _3  and  _4
REMARK    3  A    between atoms: _3  and  _6
REMARK    4  A    between atoms: _6  and  _7
REMARK    5  A    between atoms: _10  and  _12
REMARK    6  A    between atoms: _12  and  _13
REMARK    7  A    between atoms: _12  and  _15
REMARK    8  A    between atoms: _15  and  _16
REMARK    9  A    between atoms: _17  and  ZN_336
REMARK   10  A    between atoms: _21  and  _23
REMARK   11  A    between atoms: _23  and  _24
REMARK   12  A    between atoms: _23  and  _26
REMARK   13  A    between atoms: _26  and  _27
REMARK   14  A    between atoms: _27  and  _28
REMARK   15  A    between atoms: _28  and  _29
REMARK   16  A    between atoms: _38  and  _40
REMARK   17  A    between atoms: _40  and  _41
REMARK   18  A    between atoms: _40  and  _43
REMARK   19  A    between atoms: _43  and  _44
REMARK   20  A    between atoms: _44  and  _45
REMARK   21  A    between atoms: _45  and  _46
REMARK   22  A    between atoms: _46  and  ZN_336
REMARK   23  A    between atoms: _48  and  _50
REMARK   24  A    between atoms: _50  and  _51
REMARK   25  A    between atoms: _50  and  _53
REMARK   26  A    between atoms: _53  and  _54
REMARK   27  A    between atoms: _54  and  _55
REMARK   28  A    between atoms: _55  and  _56
REMARK   29  A    between atoms: _65  and  _67
REMARK   30  A    between atoms: _67  and  _68
REMARK   31  A    between atoms: _67  and  _70
REMARK   32  A    between atoms: _70  and  _71
REMARK   33  A    between atoms: _74  and  _76
REMARK   34  A    between atoms: _76  and  _77
REMARK   35  A    between atoms: _80  and  _82
REMARK   36  A    between atoms: _82  and  _83
REMARK   37  A    between atoms: _82  and  _85
REMARK   38  A    between atoms: _85  and  _86
REMARK   39  A    between atoms: _91  and  _93
REMARK   40  A    between atoms: _93  and  _94
REMARK   41  A    between atoms: _93  and  _96
REMARK   42  A    between atoms: _96  and  _97
REMARK   43  A    between atoms: _97  and  _98
REMARK   44  A    between atoms: _98  and  _99
REMARK   45  A    between atoms: _108  and  _110
REMARK   46  A    between atoms: _110  and  _111
REMARK   47  A    between atoms: _113  and  _115
REMARK   48  A    between atoms: _115  and  _116
REMARK   49  A    between atoms: _115  and  _118
REMARK   50  A    between atoms: _118  and  _119
REMARK   51  A    between atoms: _119  and  _120
REMARK   52  A    between atoms: _123  and  _125
REMARK   53  A    between atoms: _125  and  _126
REMARK   54  A    between atoms: _125  and  _128
REMARK   55  A    between atoms: _128  and  _129
REMARK   56  A    between atoms: _132  and  _134
REMARK   57  A    between atoms: _134  and  _135
REMARK   58  A    between atoms: _134  and  _137
REMARK   59  A    between atoms: _137  and  _138
REMARK   60  A    between atoms: _140  and  _142
REMARK   61  A    between atoms: _142  and  _143
REMARK   62  A    between atoms: _142  and  _145
REMARK   63  A    between atoms: _145  and  _146
REMARK   64  A    between atoms: _149  and  _151
REMARK   65  A    between atoms: _151  and  _152
REMARK   66  A    between atoms: _151  and  _154
REMARK   67  A    between atoms: _154  and  _155
REMARK   68  A    between atoms: _156  and  ZN_336
REMARK   69  A    between atoms: _160  and  _162
REMARK   70  A    between atoms: _162  and  _163
REMARK   71  A    between atoms: _162  and  _165
REMARK   72  A    between atoms: _165  and  _166
REMARK   73  A    between atoms: _168  and  _170
REMARK   74  A    between atoms: _170  and  _171
REMARK   75  A    between atoms: _170  and  _173
REMARK   76  A    between atoms: _173  and  _174
REMARK   77  A    between atoms: _179  and  _180
REMARK   78  A    between atoms: _182  and  _184
REMARK   79  A    between atoms: _184  and  _185
REMARK   80  A    between atoms: _184  and  _187
REMARK   81  A    between atoms: _187  and  _188
REMARK   82  A    between atoms: _190  and  _192
REMARK   83  A    between atoms: _192  and  _193
REMARK   84  A    between atoms: _192  and  _195
REMARK   85  A    between atoms: _195  and  _196
REMARK   86  A    between atoms: _199  and  _201
REMARK   87  A    between atoms: _201  and  _202
REMARK   88  A    between atoms: _201  and  _204
REMARK   89  A    between atoms: _204  and  _205
REMARK   90  A    between atoms: _208  and  _210
REMARK   91  A    between atoms: _210  and  _211
REMARK   92  A    between atoms: _210  and  _213
REMARK   93  A    between atoms: _213  and  _214
REMARK   94  A    between atoms: _217  and  _219
REMARK   95  A    between atoms: _219  and  _220
REMARK   96  A    between atoms: _219  and  _222
REMARK   97  A    between atoms: _222  and  _223
REMARK   98  A    between atoms: _226  and  _228
REMARK   99  A    between atoms: _228  and  _229
REMARK  100  A    between atoms: _228  and  _231
REMARK  101  A    between atoms: _231  and  _232
REMARK  102  A    between atoms: _237  and  _238
REMARK  103  A    between atoms: _240  and  _242
REMARK  104  A    between atoms: _242  and  _243
REMARK  105  A    between atoms: _242  and  _245
REMARK  106  A    between atoms: _245  and  _246
REMARK  107  A    between atoms: _246  and  _247
REMARK  108  A    between atoms: _252  and  _254
REMARK  109  A    between atoms: _254  and  _255
REMARK  110  A    between atoms: _258  and  _260
REMARK  111  A    between atoms: _260  and  _261
REMARK  112  A    between atoms: _260  and  _263
REMARK  113  A    between atoms: _263  and  _264
REMARK  114  A    between atoms: _266  and  _268
REMARK  115  A    between atoms: _268  and  _269
REMARK  116  A    between atoms: _271  and  _273
REMARK  117  A    between atoms: _273  and  _274
REMARK  118  A    between atoms: _276  and  _278
REMARK  119  A    between atoms: _278  and  _279
REMARK  120  A    between atoms: _278  and  _281
REMARK  121  A    between atoms: _281  and  _282
REMARK  122  A    between atoms: _284  and  _286
REMARK  123  A    between atoms: _286  and  _287
REMARK  124  A    between atoms: _286  and  _289
REMARK  125  A    between atoms: _289  and  _290
REMARK  126  A    between atoms: _293  and  _295
REMARK  127  A    between atoms: _295  and  _296
REMARK  128  A    between atoms: _295  and  _298
REMARK  129  A    between atoms: _298  and  _299
REMARK  130  A    between atoms: _305  and  _307
REMARK  131  A    between atoms: _307  and  _308
REMARK  132  A    between atoms: _307  and  _310
REMARK  133  A    between atoms: _310  and  _311
REMARK  134  A    between atoms: _311  and  _312
REMARK  135  A    between atoms: _315  and  _317
REMARK  136  A    between atoms: _317  and  _318
REMARK  137  A    between atoms: _317  and  _320
REMARK  138  A    between atoms: _320  and  _321
REMARK  139  A    between atoms: _324  and  _326
REMARK  140  A    between atoms: _326  and  _327
REMARK  141  A    between atoms: _326  and  _329
REMARK  142  A    between atoms: _329  and  _330
REMARK                            x       y       z     vdW  Elec       q    Type
REMARK                         _______ _______ _______ _____ _____    ______ ____
ROOT
ATOM      1  CA  LEU A   1      10.522 -13.801  14.265  0.00  0.00    +0.133 C 
ENDROOT
BRANCH   1   2
ATOM      2  N   LEU A   1      11.948 -13.488  14.228  0.00  0.00    -0.239 NA
ATOM      3  H   LEU A   1      12.272 -12.602  14.665  0.00  0.00    +0.142 HD
ENDBRANCH   1   2
BRANCH   1   4
ATOM      4  C   LEU A   1       9.722 -12.583  13.821  0.00  0.00    +0.224 C 
ATOM      5  O   LEU A   1      10.164 -11.448  14.009  0.00  0.00    -0.287 OA
ENDBRANCH   1   4
BRANCH   1   6
ATOM      6  CB  LEU A   1      10.091 -14.125  15.698  0.00  0.00    +0.025 C 
BRANCH   6   7
ATOM      7  CG  LEU A   1      10.833 -15.293  16.379  0.00  0.00    +0.002 C 
ATOM      8  CD2 LEU A   1      10.388 -15.400  17.851  0.00  0.00    +0.000 C 
ATOM      9  CD1 LEU A   1      10.554 -16.584  15.624  0.00  0.00    +0.000 C 
ENDBRANCH   6   7
ENDBRANCH   1   6
TORSDOF 4
REMARK  Name = ../refined-set-2016/1f57/1f57_pocket.pdb
REMARK  142 active torsions:
REMARK  status: ('A' for Active; 'I' for Inactive)
REMARK    1  A    between atoms: _1  and  _3
REMARK    2  A    between atoms: _3  and  _4
REMARK    3  A    between atoms: _3  and  _6
REMARK    4  A    between atoms: _6  and  _7
REMARK    5  A    between atoms: _10  and  _12
REMARK    6  A    between atoms: _12  and  _13
REMARK    7  A    between atoms: _12  and  _15
REMARK    8  A    between atoms: _15  and  _16
REMARK    9  A    between atoms: _17  and  ZN_336
REMARK   10  A    between atoms: _21  and  _23
REMARK   11  A    between atoms: _23  and  _24
REMARK   12  A    between atoms: _23  and  _26
REMARK   13  A    between atoms: _26  and  _27
REMARK   14  A    between atoms: _27  and  _28
REMARK   15  A    between atoms: _28  and  _29
REMARK   16  A    between atoms: _38  and  _40
REMARK   17  A    between atoms: _40  and  _41
REMARK   18  A    between atoms: _40  and  _43
REMARK   19  A    between atoms: _43  and  _44
REMARK   20  A    between atoms: _44  and  _45
REMARK   21  A    between atoms: _45  and  _46
REMARK   22  A    between atoms: _46  and  ZN_336
REMARK   23  A    between atoms: _48  and  _50
REMARK   24  A    between atoms: _50  and  _51
REMARK   25  A    between atoms: _50  and  _53
REMARK   26  A    between atoms: _53  and  _54
REMARK   27  A    between atoms: _54  and  _55
REMARK   28  A    between atoms: _55  and  _56
REMARK   29  A    between atoms: _65  and  _67
REMARK   30  A    between atoms: _67  and  _68
REMARK   31  A    between atoms: _67  and  _70
REMARK   32  A    between atoms: _70  and  _71
REMARK   33  A    between atoms: _74  and  _76
REMARK   34  A    between atoms: _76  and  _77
REMARK   35  A    between atoms: _80  and  _82
REMARK   36  A    between atoms: _82  and  _83
REMARK   37  A    between atoms: _82  and  _85
REMARK   38  A    between atoms: _85  and  _86
REMARK   39  A    between atoms: _91  and  _93
REMARK   40  A    between atoms: _93  and  _94
REMARK   41  A    between atoms: _93  and  _96
REMARK   42  A    between atoms: _96  and  _97
REMARK   43  A    between atoms: _97  and  _98
REMARK   44  A    between atoms: _98  and  _99
REMARK   45  A    between atoms: _108  and  _110
REMARK   46  A    between atoms: _110  and  _111
REMARK   47  A    between atoms: _113  and  _115
REMARK   48  A    between atoms: _115  and  _116
REMARK   49  A    between atoms: _115  and  _118
REMARK   50  A    between atoms: _118  and  _119
REMARK   51  A    between atoms: _119  and  _120
REMARK   52  A    between atoms: _123  and  _125
REMARK   53  A    between atoms: _125  and  _126
REMARK   54  A    between atoms: _125  and  _128
REMARK   55  A    between atoms: _128  and  _129
REMARK   56  A    between atoms: _132  and  _134
REMARK   57  A    between atoms: _134  and  _135
REMARK   58  A    between atoms: _134  and  _137
REMARK   59  A    between atoms: _137  and  _138
REMARK   60  A    between atoms: _140  and  _142
REMARK   61  A    between atoms: _142  and  _143
REMARK   62  A    between atoms: _142  and  _145
REMARK   63  A    between atoms: _145  and  _146
REMARK   64  A    between atoms: _149  and  _151
REMARK   65  A    between atoms: _151  and  _152
REMARK   66  A    between atoms: _151  and  _154
REMARK   67  A    between atoms: _154  and  _155
REMARK   68  A    between atoms: _156  and  ZN_336
REMARK   69  A    between atoms: _160  and  _162
REMARK   70  A    between atoms: _162  and  _163
REMARK   71  A    between atoms: _162  and  _165
REMARK   72  A    between atoms: _165  and  _166
REMARK   73  A    between atoms: _168  and  _170
REMARK   74  A    between atoms: _170  and  _171
REMARK   75  A    between atoms: _170  and  _173
REMARK   76  A    between atoms: _173  and  _174
REMARK   77  A    between atoms: _179  and  _180
REMARK   78  A    between atoms: _182  and  _184
REMARK   79  A    between atoms: _184  and  _185
REMARK   80  A    between atoms: _184  and  _187
REMARK   81  A    between atoms: _187  and  _188
REMARK   82  A    between atoms: _190  and  _192
REMARK   83  A    between atoms: _192  and  _193
REMARK   84  A    between atoms: _192  and  _195
REMARK   85  A    between atoms: _195  and  _196
REMARK   86  A    between atoms: _199  and  _201
REMARK   87  A    between atoms: _201  and  _202
REMARK   88  A    between atoms: _201  and  _204
REMARK   89  A    between atoms: _204  and  _205
REMARK   90  A    between atoms: _208  and  _210
REMARK   91  A    between atoms: _210  and  _211
REMARK   92  A    between atoms: _210  and  _213
REMARK   93  A    between atoms: _213  and  _214
REMARK   94  A    between atoms: _217  and  _219
REMARK   95  A    between atoms: _219  and  _220
REMARK   96  A    between atoms: _219  and  _222
REMARK   97  A    between atoms: _222  and  _223
REMARK   98  A    between atoms: _226  and  _228
REMARK   99  A    between atoms: _228  and  _229
REMARK  100  A    between atoms: _228  and  _231
REMARK  101  A    between atoms: _231  and  _232
REMARK  102  A    between atoms: _237  and  _238
REMARK  103  A    between atoms: _240  and  _242
REMARK  104  A    between atoms: _242  and  _243
REMARK  105  A    between atoms: _242  and  _245
REMARK  106  A    between atoms: _245  and  _246
REMARK  107  A    between atoms: _246  and  _247
REMARK  108  A    between atoms: _252  and  _254
REMARK  109  A    between atoms: _254  and  _255
REMARK  110  A    between atoms: _258  and  _260
REMARK  111  A    between atoms: _260  and  _261
REMARK  112  A    between atoms: _260  and  _263
REMARK  113  A    between atoms: _263  and  _264
REMARK  114  A    between atoms: _266  and  _268
REMARK  115  A    between atoms: _268  and  _269
REMARK  116  A    between atoms: _271  and  _273
REMARK  117  A    between atoms: _273  and  _274
REMARK  118  A    between atoms: _276  and  _278
REMARK  119  A    between atoms: _278  and  _279
REMARK  120  A    between atoms: _278  and  _281
REMARK  121  A    between atoms: _281  and  _282
REMARK  122  A    between atoms: _284  and  _286
REMARK  123  A    between atoms: _286  and  _287
REMARK  124  A    between atoms: _286  and  _289
REMARK  125  A    between atoms: _289  and  _290
REMARK  126  A    between atoms: _293  and  _295
REMARK  127  A    between atoms: _295  and  _296
REMARK  128  A    between atoms: _295  and  _298
REMARK  129  A    between atoms: _298  and  _299
REMARK  130  A    between atoms: _305  and  _307
REMARK  131  A    between atoms: _307  and  _308
REMARK  132  A    between atoms: _307  and  _310
REMARK  133  A    between atoms: _310  and  _311
REMARK  134  A    between atoms: _311  and  _312
REMARK  135  A    between atoms: _315  and  _317
REMARK  136  A    between atoms: _317  and  _318
REMARK  137  A    between atoms: _317  and  _320
REMARK  138  A    between atoms: _320  and  _321
REMARK  139  A    between atoms: _324  and  _326
REMARK  140  A    between atoms: _326  and  _327
REMARK  141  A    between atoms: _326  and  _329
REMARK  142  A    between atoms: _329  and  _330
REMARK                            x       y       z     vdW  Elec       q    Type
REMARK                         _______ _______ _______ _____ _____    ______ ____
ROOT
ATOM      1  CA  LEU A   1       4.733 -11.884  15.336  0.00  0.00    +0.133 C 
ENDROOT
BRANCH   1   2
ATOM      2  N   LEU A   1       5.881 -11.474  14.550  0.00  0.00    -0.239 NA
ATOM      3  H   LEU A   1       6.354 -10.574  14.768  0.00  0.00    +0.142 HD
ENDBRANCH   1   2
BRANCH   1   4
ATOM      4  C   LEU A   1       3.533 -10.969  15.304  0.00  0.00    +0.224 C 
ATOM      5  O   LEU A   1       3.662  -9.763  15.137  0.00  0.00    -0.287 OA
ENDBRANCH   1   4
BRANCH   1   6
ATOM      6  CB  LEU A   1       5.177 -12.057  16.783  0.00  0.00    +0.025 C 
BRANCH   6   7
ATOM      7  CG  LEU A   1       6.512 -12.798  16.973  0.00  0.00    +0.002 C 
ATOM      8  CD2 LEU A   1       6.986 -12.609  18.400  0.00  0.00    +0.000 C 
ATOM      9  CD1 LEU A   1       6.347 -14.285  16.631  0.00  0.00    +0.000 C 
ENDBRANCH   6   7
ENDBRANCH   1   6
TORSDOF 4
REMARK  Name = ../refined-set-2016/1f57/1f57_pocket.pdb
REMARK  142 active torsions:
REMARK  status: ('A' for Active; 'I' for Inactive)
REMARK    1  A    between atoms: _1  and  _3
REMARK    2  A    between atoms: _3  and  _4
REMARK    3  A    between atoms: _3  and  _6
REMARK    4  A    between atoms: _6  and  _7
REMARK    5  A    between atoms: _10  and  _12
REMARK    6  A    between atoms: _12  and  _13
REMARK    7  A    between atoms: _12  and  _15
REMARK    8  A    between atoms: _15  and  _16
REMARK    9  A    between atoms: _17  and  ZN_336
REMARK   10  A    between atoms: _21  and  _23
REMARK   11  A    between atoms: _23  and  _24
REMARK   12  A    between atoms: _23  and  _26
REMARK   13  A    between atoms: _26  and  _27
REMARK   14  A    between atoms: _27  and  _28
REMARK   15  A    between atoms: _28  and  _29
REMARK   16  A    between atoms: _38  and  _40
REMARK   17  A    between atoms: _40  and  _41
REMARK   18  A    between atoms: _40  and  _43
REMARK   19  A    between atoms: _43  and  _44
REMARK   20  A    between atoms: _44  and  _45
REMARK   21  A    between atoms: _45  and  _46
REMARK   22  A    between atoms: _46  and  ZN_336
REMARK   23  A    between atoms: _48  and  _50
REMARK   24  A    between atoms: _50  and  _51
REMARK   25  A    between atoms: _50  and  _53
REMARK   26  A    between atoms: _53  and  _54
REMARK   27  A    between atoms: _54  and  _55
REMARK   28  A    between atoms: _55  and  _56
REMARK   29  A    between atoms: _65  and  _67
REMARK   30  A    between atoms: _67  and  _68
REMARK   31  A    between atoms: _67  and  _70
REMARK   32  A    between atoms: _70  and  _71
REMARK   33  A    between atoms: _74  and  _76
REMARK   34  A    between atoms: _76  and  _77
REMARK   35  A    between atoms: _80  and  _82
REMARK   36  A    between atoms: _82  and  _83
REMARK   37  A    between atoms: _82  and  _85
REMARK   38  A    between atoms: _85  and  _86
REMARK   39  A    between atoms: _91  and  _93
REMARK   40  A    between atoms: _93  and  _94
REMARK   41  A    between atoms: _93  and  _96
REMARK   42  A    between atoms: _96  and  _97
REMARK   43  A    between atoms: _97  and  _98
REMARK   44  A    between atoms: _98  and  _99
REMARK   45  A    between atoms: _108  and  _110
REMARK   46  A    between atoms: _110  and  _111
REMARK   47  A    between atoms: _113  and  _115
REMARK   48  A    between atoms: _115  and  _116
REMARK   49  A    between atoms: _115  and  _118
REMARK   50  A    between atoms: _118  and  _119
REMARK   51  A    between atoms: _119  and  _120
REMARK   52  A    between atoms: _123  and  _125
REMARK   53  A    between atoms: _125  and  _126
REMARK   54  A    between atoms: _125  and  _128
REMARK   55  A    between atoms: _128  and  _129
REMARK   56  A    between atoms: _132  and  _134
REMARK   57  A    between atoms: _134  and  _135
REMARK   58  A    between atoms: _134  and  _137
REMARK   59  A    between atoms: _137  and  _138
REMARK   60  A    between atoms: _140  and  _142
REMARK   61  A    between atoms: _142  and  _143
REMARK   62  A    between atoms: _142  and  _145
REMARK   63  A    between atoms: _145  and  _146
REMARK   64  A    between atoms: _149  and  _151
REMARK   65  A    between atoms: _151  and  _152
REMARK   66  A    between atoms: _151  and  _154
REMARK   67  A    between atoms: _154  and  _155
REMARK   68  A    between atoms: _156  and  ZN_336
REMARK   69  A    between atoms: _160  and  _162
REMARK   70  A    between atoms: _162  and  _163
REMARK   71  A    between atoms: _162  and  _165
REMARK   72  A    between atoms: _165  and  _166
REMARK   73  A    between atoms: _168  and  _170
REMARK   74  A    between atoms: _170  and  _171
REMARK   75  A    between atoms: _170  and  _173
REMARK   76  A    between atoms: _173  and  _174
REMARK   77  A    between atoms: _179  and  _180
REMARK   78  A    between atoms: _182  and  _184
REMARK   79  A    between atoms: _184  and  _185
REMARK   80  A    between atoms: _184  and  _187
REMARK   81  A    between atoms: _187  and  _188
REMARK   82  A    between atoms: _190  and  _192
REMARK   83  A    between atoms: _192  and  _193
REMARK   84  A    between atoms: _192  and  _195
REMARK   85  A    between atoms: _195  and  _196
REMARK   86  A    between atoms: _199  and  _201
REMARK   87  A    between atoms: _201  and  _202
REMARK   88  A    between atoms: _201  and  _204
REMARK   89  A    between atoms: _204  and  _205
REMARK   90  A    between atoms: _208  and  _210
REMARK   91  A    between atoms: _210  and  _211
REMARK   92  A    between atoms: _210  and  _213
REMARK   93  A    between atoms: _213  and  _214
REMARK   94  A    between atoms: _217  and  _219
REMARK   95  A    between atoms: _219  and  _220
REMARK   96  A    between atoms: _219  and  _222
REMARK   97  A    between atoms: _222  and  _223
REMARK   98  A    between atoms: _226  and  _228
REMARK   99  A    between atoms: _228  and  _229
REMARK  100  A    between atoms: _228  and  _231
REMARK  101  A    between atoms: _231  and  _232
REMARK  102  A    between atoms: _237  and  _238
REMARK  103  A    between atoms: _240  and  _242
REMARK  104  A    between atoms: _242  and  _243
REMARK  105  A    between atoms: _242  and  _245
REMARK  106  A    between atoms: _245  and  _246
REMARK  107  A    between atoms: _246  and  _247
REMARK  108  A    between atoms: _252  and  _254
REMARK  109  A    between atoms: _254  and  _255
REMARK  110  A    between atoms: _258  and  _260
REMARK  111  A    between atoms: _260  and  _261
REMARK  112  A    between atoms: _260  and  _263
REMARK  113  A    between atoms: _263  and  _264
REMARK  114  A    between atoms: _266  and  _268
REMARK  115  A    between atoms: _268  and  _269
REMARK  116  A    between atoms: _271  and  _273
REMARK  117  A    between atoms: _273  and  _274
REMARK  118  A    between atoms: _276  and  _278
REMARK  119  A    between atoms: _278  and  _279
REMARK  120  A    between atoms: _278  and  _281
REMARK  121  A    between atoms: _281  and  _282
REMARK  122  A    between atoms: _284  and  _286
REMARK  123  A    between atoms: _286  and  _287
REMARK  124  A    between atoms: _286  and  _289
REMARK  125  A    between atoms: _289  and  _290
REMARK  126  A    between atoms: _293  and  _295
REMARK  127  A    between atoms: _295  and  _296
REMARK  128  A    between atoms: _295  and  _298
REMARK  129  A    between atoms: _298  and  _299
REMARK  130  A    between atoms: _305  and  _307
REMARK  131  A    between atoms: _307  and  _308
REMARK  132  A    between atoms: _307  and  _310
REMARK  133  A    between atoms: _310  and  _311
REMARK  134  A    between atoms: _311  and  _312
REMARK  135  A    between atoms: _315  and  _317
REMARK  136  A    between atoms: _317  and  _318
REMARK  137  A    between atoms: _317  and  _320
REMARK  138  A    between atoms: _320  and  _321
REMARK  139  A    between atoms: _324  and  _326
REMARK  140  A    between atoms: _326  and  _327
REMARK  141  A    between atoms: _326  and  _329
REMARK  142  A    between atoms: _329  and  _330
REMARK                            x       y       z     vdW  Elec       q    Type
REMARK                         _______ _______ _______ _____ _____    ______ ____
ROOT
ATOM      1  CA  ILE A   1       3.144 -14.200  20.098  0.00  0.00    +0.133 C 
ENDROOT
BRANCH   1   2
ATOM      2  N   ILE A   1       2.156 -14.217  19.030  0.00  0.00    -0.239 NA
ATOM      3  H   ILE A   1       1.514 -13.409  18.900  0.00  0.00    +0.142 HD
ENDBRANCH   1   2
BRANCH   1   4
ATOM      4  C   ILE A   1       3.031 -15.416  21.024  0.00  0.00    +0.224 C 
ATOM      5  O   ILE A   1       4.005 -16.151  21.231  0.00  0.00    -0.287 OA
ENDBRANCH   1   4
BRANCH   1   6
ATOM      6  CB  ILE A   1       3.000 -12.925  20.960  0.00  0.00    +0.023 C 
ATOM      7  CG2 ILE A   1       3.879 -13.031  22.232  0.00  0.00    +0.002 C 
BRANCH   6   8
ATOM      8  CG1 ILE A   1       3.354 -11.690  20.127  0.00  0.00    +0.002 C 
ATOM      9  CD1 ILE A   1       2.886 -10.363  20.797  0.00  0.00    +0.000 C 
ENDBRANCH   6   8
ENDBRANCH   1   6
TORSDOF 4
REMARK  Name = ../refined-set-2016/1f57/1f57_pocket.pdb
REMARK  142 active torsions:
REMARK  status: ('A' for Active; 'I' for Inactive)
REMARK    1  A    between atoms: _1  and  _3
REMARK    2  A    between atoms: _3  and  _4
REMARK    3  A    between atoms: _3  and  _6
REMARK    4  A    between atoms: _6  and  _7
REMARK    5  A    between atoms: _10  and  _12
REMARK    6  A    between atoms: _12  and  _13
REMARK    7  A    between atoms: _12  and  _15
REMARK    8  A    between atoms: _15  and  _16
REMARK    9  A    between atoms: _17  and  ZN_336
REMARK   10  A    between atoms: _21  and  _23
REMARK   11  A    between atoms: _23  and  _24
REMARK   12  A    between atoms: _23  and  _26
REMARK   13  A    between atoms: _26  and  _27
REMARK   14  A    between atoms: _27  and  _28
REMARK   15  A    between atoms: _28  and  _29
REMARK   16  A    between atoms: _38  and  _40
REMARK   17  A    between atoms: _40  and  _41
REMARK   18  A    between atoms: _40  and  _43
REMARK   19  A    between atoms: _43  and  _44
REMARK   20  A    between atoms: _44  and  _45
REMARK   21  A    between atoms: _45  and  _46
REMARK   22  A    between atoms: _46  and  ZN_336
REMARK   23  A    between atoms: _48  and  _50
REMARK   24  A    between atoms: _50  and  _51
REMARK   25  A    between atoms: _50  and  _53
REMARK   26  A    between atoms: _53  and  _54
REMARK   27  A    between atoms: _54  and  _55
REMARK   28  A    between atoms: _55  and  _56
REMARK   29  A    between atoms: _65  and  _67
REMARK   30  A    between atoms: _67  and  _68
REMARK   31  A    between atoms: _67  and  _70
REMARK   32  A    between atoms: _70  and  _71
REMARK   33  A    between atoms: _74  and  _76
REMARK   34  A    between atoms: _76  and  _77
REMARK   35  A    between atoms: _80  and  _82
REMARK   36  A    between atoms: _82  and  _83
REMARK   37  A    between atoms: _82  and  _85
REMARK   38  A    between atoms: _85  and  _86
REMARK   39  A    between atoms: _91  and  _93
REMARK   40  A    between atoms: _93  and  _94
REMARK   41  A    between atoms: _93  and  _96
REMARK   42  A    between atoms: _96  and  _97
REMARK   43  A    between atoms: _97  and  _98
REMARK   44  A    between atoms: _98  and  _99
REMARK   45  A    between atoms: _108  and  _110
REMARK   46  A    between atoms: _110  and  _111
REMARK   47  A    between atoms: _113  and  _115
REMARK   48  A    between atoms: _115  and  _116
REMARK   49  A    between atoms: _115  and  _118
REMARK   50  A    between atoms: _118  and  _119
REMARK   51  A    between atoms: _119  and  _120
REMARK   52  A    between atoms: _123  and  _125
REMARK   53  A    between atoms: _125  and  _126
REMARK   54  A    between atoms: _125  and  _128
REMARK   55  A    between atoms: _128  and  _129
REMARK   56  A    between atoms: _132  and  _134
REMARK   57  A    between atoms: _134  and  _135
REMARK   58  A    between atoms: _134  and  _137
REMARK   59  A    between atoms: _137  and  _138
REMARK   60  A    between atoms: _140  and  _142
REMARK   61  A    between atoms: _142  and  _143
REMARK   62  A    between atoms: _142  and  _145
REMARK   63  A    between atoms: _145  and  _146
REMARK   64  A    between atoms: _149  and  _151
REMARK   65  A    between atoms: _151  and  _152
REMARK   66  A    between atoms: _151  and  _154
REMARK   67  A    between atoms: _154  and  _155
REMARK   68  A    between atoms: _156  and  ZN_336
REMARK   69  A    between atoms: _160  and  _162
REMARK   70  A    between atoms: _162  and  _163
REMARK   71  A    between atoms: _162  and  _165
REMARK   72  A    between atoms: _165  and  _166
REMARK   73  A    between atoms: _168  and  _170
REMARK   74  A    between atoms: _170  and  _171
REMARK   75  A    between atoms: _170  and  _173
REMARK   76  A    between atoms: _173  and  _174
REMARK   77  A    between atoms: _179  and  _180
REMARK   78  A    between atoms: _182  and  _184
REMARK   79  A    between atoms: _184  and  _185
REMARK   80  A    between atoms: _184  and  _187
REMARK   81  A    between atoms: _187  and  _188
REMARK   82  A    between atoms: _190  and  _192
REMARK   83  A    between atoms: _192  and  _193
REMARK   84  A    between atoms: _192  and  _195
REMARK   85  A    between atoms: _195  and  _196
REMARK   86  A    between atoms: _199  and  _201
REMARK   87  A    between atoms: _201  and  _202
REMARK   88  A    between atoms: _201  and  _204
REMARK   89  A    between atoms: _204  and  _205
REMARK   90  A    between atoms: _208  and  _210
REMARK   91  A    between atoms: _210  and  _211
REMARK   92  A    between atoms: _210  and  _213
REMARK   93  A    between atoms: _213  and  _214
REMARK   94  A    between atoms: _217  and  _219
REMARK   95  A    between atoms: _219  and  _220
REMARK   96  A    between atoms: _219  and  _222
REMARK   97  A    between atoms: _222  and  _223
REMARK   98  A    between atoms: _226  and  _228
REMARK   99  A    between atoms: _228  and  _229
REMARK  100  A    between atoms: _228  and  _231
REMARK  101  A    between atoms: _231  and  _232
REMARK  102  A    between atoms: _237  and  _238
REMARK  103  A    between atoms: _240  and  _242
REMARK  104  A    between atoms: _242  and  _243
REMARK  105  A    between atoms: _242  and  _245
REMARK  106  A    between atoms: _245  and  _246
REMARK  107  A    between atoms: _246  and  _247
REMARK  108  A    between atoms: _252  and  _254
REMARK  109  A    between atoms: _254  and  _255
REMARK  110  A    between atoms: _258  and  _260
REMARK  111  A    between atoms: _260  and  _261
REMARK  112  A    between atoms: _260  and  _263
REMARK  113  A    between atoms: _263  and  _264
REMARK  114  A    between atoms: _266  and  _268
REMARK  115  A    between atoms: _268  and  _269
REMARK  116  A    between atoms: _271  and  _273
REMARK  117  A    between atoms: _273  and  _274
REMARK  118  A    between atoms: _276  and  _278
REMARK  119  A    between atoms: _278  and  _279
REMARK  120  A    between atoms: _278  and  _281
REMARK  121  A    between atoms: _281  and  _282
REMARK  122  A    between atoms: _284  and  _286
REMARK  123  A    between atoms: _286  and  _287
REMARK  124  A    between atoms: _286  and  _289
REMARK  125  A    between atoms: _289  and  _290
REMARK  126  A    between atoms: _293  and  _295
REMARK  127  A    between atoms: _295  and  _296
REMARK  128  A    between atoms: _295  and  _298
REMARK  129  A    between atoms: _298  and  _299
REMARK  130  A    between atoms: _305  and  _307
REMARK  131  A    between atoms: _307  and  _308
REMARK  132  A    between atoms: _307  and  _310
REMARK  133  A    between atoms: _310  and  _311
REMARK  134  A    between atoms: _311  and  _312
REMARK  135  A    between atoms: _315  and  _317
REMARK  136  A    between atoms: _317  and  _318
REMARK  137  A    between atoms: _317  and  _320
REMARK  138  A    between atoms: _320  and  _321
REMARK  139  A    between atoms: _324  and  _326
REMARK  140  A    between atoms: _326  and  _327
REMARK  141  A    between atoms: _326  and  _329
REMARK  142  A    between atoms: _329  and  _330
REMARK                            x       y       z     vdW  Elec       q    Type
REMARK                         _______ _______ _______ _____ _____    ______ ____
ROOT
ATOM      1  C   GLN A   3       3.605 -14.654  27.575  0.00  0.00    +0.241 C 
ATOM      2  O   GLN A   3       4.687 -14.793  28.128  0.00  0.00    -0.273 OA
ATOM      3  N   ALA A   4       3.098 -13.473  27.250  0.00  0.00    -0.297 N 
ATOM      4  H   ALA A   4       2.186 -13.445  26.751  0.00  0.00    +0.150 HD
ENDROOT
BRANCH   3   5
ATOM      5  CA  ALA A   4       3.761 -12.211  27.561  0.00  0.00    +0.149 C 
ATOM      6  CB  ALA A   4       4.711 -11.803  26.419  0.00  0.00    +0.031 C 
BRANCH   5   7
ATOM      7  C   ALA A   4       2.609 -11.223  27.687  0.00  0.00    +0.241 C 
ATOM      8  N   SER A   5       2.510 -10.531  28.818  0.00  0.00    -0.295 N 
ATOM      9  H   SER A   5       3.224 -10.663  29.562  0.00  0.00    +0.150 HD
ATOM     10  O   ALA A   4       1.811 -11.104  26.769  0.00  0.00    -0.273 OA
BRANCH   8  11
ATOM     11  CA  SER A   5       1.420  -9.592  29.033  0.00  0.00    +0.178 C 
BRANCH  11  12
ATOM     12  C   SER A   5       1.894  -8.153  28.998  0.00  0.00    +0.243 C 
ATOM     13  O   SER A   5       3.070  -7.886  29.190  0.00  0.00    -0.273 OA
ATOM     14  N   GLY A   6       0.963  -7.243  28.742  0.00  0.00    -0.295 N 
ATOM     15  H   GLY A   6      -0.013  -7.552  28.557  0.00  0.00    +0.150 HD
BRANCH  14  16
ATOM     16  CA  GLY A   6       1.277  -5.824  28.714  0.00  0.00    +0.176 C 
BRANCH  16  17
ATOM     17  C   GLY A   6       2.110  -5.399  27.518  0.00  0.00    +0.243 C 
ATOM     18  O   GLY A   6       2.794  -4.391  27.597  0.00  0.00    -0.273 OA
ATOM     19  N   GLY A   7       2.035  -6.145  26.413  0.00  0.00    -0.295 N 
ATOM     20  H   GLY A   7       1.401  -6.969  26.397  0.00  0.00    +0.150 HD
BRANCH  19  21
ATOM     21  CA  GLY A   7       2.828  -5.826  25.221  0.00  0.00    +0.176 C 
BRANCH  21  22
ATOM     22  C   GLY A   7       2.198  -4.778  24.318  0.00  0.00    +0.243 C 
ATOM     23  O   GLY A   7       0.975  -4.630  24.252  0.00  0.00    -0.273 OA
ATOM     24  N   SER A   8       3.037  -4.070  23.572  0.00  0.00    -0.296 N 
ATOM     25  H   SER A   8       4.051  -4.300  23.573  0.00  0.00    +0.150 HD
BRANCH  24  26
ATOM     26  CA  SER A   8       2.548  -2.984  22.761  0.00  0.00    +0.166 C 
BRANCH  26  27
ATOM     27  C   SER A   8       1.604  -3.323  21.616  0.00  0.00    +0.229 C 
ATOM     28  O   SER A   8       0.607  -2.631  21.440  0.00  0.00    -0.286 OA
ENDBRANCH  26  27
BRANCH  26  29
ATOM     29  CB  SER A   8       3.728  -2.165  22.244  0.00  0.00    +0.165 C 
BRANCH  29  30
ATOM     30  OG  SER A   8       4.481  -2.926  21.327  0.00  0.00    -0.380 OA
ATOM     31  H   SER A   8       5.243  -2.386  20.999  0.00  0.00    +0.211 HD
ENDBRANCH  29  30
ENDBRANCH  26  29
ENDBRANCH  24  26
ENDBRANCH  21  22
ENDBRANCH  19  21
ENDBRANCH  16  17
ENDBRANCH  14  16
ENDBRANCH  11  12
BRANCH  11  32
ATOM     32  CB  SER A   5       0.765  -9.851  30.389  0.00  0.00    +0.166 C 
BRANCH  32  33
ATOM     33  OG  SER A   5       1.715  -9.677  31.435  0.00  0.00    -0.380 OA
ATOM     34  H   SER A   5       1.279  -9.847  32.307  0.00  0.00    +0.211 HD
ENDBRANCH  32  33
ENDBRANCH  11  32
ENDBRANCH   8  11
ENDBRANCH   5   7
ENDBRANCH   3   5
BRANCH   1  35
ATOM     35  CA  GLN A   3       2.758 -15.848  27.191  0.00  0.00    +0.149 C 
BRANCH  35  37
ATOM     36  C   TYR A   2       4.200 -16.820  25.500  0.00  0.00    +0.241 C 
ATOM     37  N   GLN A   3       3.480 -16.970  26.608  0.00  0.00    -0.297 N 
ATOM     38  H   GLN A   3       3.432 -17.903  27.065  0.00  0.00    +0.150 HD
ATOM     39  O   TYR A   2       4.388 -15.738  24.957  0.00  0.00    -0.273 OA
BRANCH  36  40
ATOM     40  CA  TYR A   2       4.819 -18.085  24.959  0.00  0.00    +0.153 C 
BRANCH  40  43
ATOM     41  C   ILE A   1       6.731 -17.431  23.575  0.00  0.00    +0.238 C 
ATOM     42  O   ILE A   1       7.354 -16.943  24.535  0.00  0.00    -0.274 OA
ATOM     43  N   TYR A   2       5.520 -17.956  23.685  0.00  0.00    -0.297 N 
ATOM     44  H   TYR A   2       5.046 -18.292  22.823  0.00  0.00    +0.150 HD
BRANCH  41  45
ATOM     45  CA  ILE A   1       7.336 -17.458  22.167  0.00  0.00    +0.145 C 
BRANCH  45  46
ATOM     46  N   ILE A   1       6.372 -17.699  21.091  0.00  0.00    -0.238 NA
ATOM     47  H   ILE A   1       5.524 -17.100  21.025  0.00  0.00    +0.142 HD
ENDBRANCH  45  46
BRANCH  45  48
ATOM     48  CB  ILE A   1       8.113 -16.148  21.947  0.00  0.00    +0.025 C 
ATOM     49  CG2 ILE A   1       8.946 -16.251  20.684  0.00  0.00    +0.002 C 
BRANCH  48  50
ATOM     50  CG1 ILE A   1       7.155 -14.961  21.841  0.00  0.00    +0.002 C 
ATOM     51  CD1 ILE A   1       7.866 -13.621  21.871  0.00  0.00    +0.000 C 
ENDBRANCH  48  50
ENDBRANCH  45  48
ENDBRANCH  41  45
ENDBRANCH  40  43
BRANCH  40  52
ATOM     52  CB  TYR A   2       5.721 -18.698  26.044  0.00  0.00    +0.055 C 
BRANCH  52  53
ATOM     53  CG  TYR A   2       6.752 -19.724  25.581  0.00  0.00    -0.020 A 
ATOM     54  CD2 TYR A   2       7.999 -19.801  26.213  0.00  0.00    -0.001 A 
ATOM     55  CE2 TYR A   2       8.963 -20.724  25.808  0.00  0.00    +0.036 A 
ATOM     56  CZ  TYR A   2       8.688 -21.584  24.760  0.00  0.00    +0.134 A 
ATOM     57  CE1 TYR A   2       7.456 -21.539  24.106  0.00  0.00    +0.036 A 
ATOM     58  CD1 TYR A   2       6.492 -20.606  24.522  0.00  0.00    -0.001 A 
BRANCH  56  59
ATOM     59  OH  TYR A   2       9.654 -22.477  24.372  0.00  0.00    -0.506 OA
ATOM     60  HH  TYR A   2       9.315 -23.021  23.617  0.00  0.00    +0.292 HD
ENDBRANCH  56  59
ENDBRANCH  52  53
ENDBRANCH  40  52
ENDBRANCH  36  40
ENDBRANCH  35  37
BRANCH  35  61
ATOM     61  CB  GLN A   3       1.925 -16.318  28.400  0.00  0.00    +0.039 C 
BRANCH  61  62
ATOM     62  CG  GLN A   3       0.606 -15.543  28.521  0.00  0.00    +0.087 C 
BRANCH  62  63
ATOM     63  CD  GLN A   3      -0.282 -15.988  29.681  0.00  0.00    +0.219 C 
ATOM     64  OE1 GLN A   3      -1.086 -15.199  30.202  0.00  0.00    -0.275 OA
ATOM     65  NE2 GLN A   3      -0.147 -17.247  30.087  0.00  0.00    -0.329 N 
ATOM     66 HE21 GLN A   3      -0.729 -17.606  30.871  0.00  0.00    +0.145 HD
ATOM     67 HE22 GLN A   3       0.540 -17.873  29.621  0.00  0.00    +0.145 HD
ENDBRANCH  62  63
ENDBRANCH  61  62
ENDBRANCH  35  61
ENDBRANCH   1  35
TORSDOF 28
REMARK  Name = ../refined-set-2016/1f57/1f57_pocket.pdb
REMARK  142 active torsions:
REMARK  status: ('A' for Active; 'I' for Inactive)
REMARK    1  A    between atoms: _1  and  _3
REMARK    2  A    between atoms: _3  and  _4
REMARK    3  A    between atoms: _3  and  _6
REMARK    4  A    between atoms: _6  and  _7
REMARK    5  A    between atoms: _10  and  _12
REMARK    6  A    between atoms: _12  and  _13
REMARK    7  A    between atoms: _12  and  _15
REMARK    8  A    between atoms: _15  and  _16
REMARK    9  A    between atoms: _17  and  ZN_336
REMARK   10  A    between atoms: _21  and  _23
REMARK   11  A    between atoms: _23  and  _24
REMARK   12  A    between atoms: _23  and  _26
REMARK   13  A    between atoms: _26  and  _27
REMARK   14  A    between atoms: _27  and  _28
REMARK   15  A    between atoms: _28  and  _29
REMARK   16  A    between atoms: _38  and  _40
REMARK   17  A    between atoms: _40  and  _41
REMARK   18  A    between atoms: _40  and  _43
REMARK   19  A    between atoms: _43  and  _44
REMARK   20  A    between atoms: _44  and  _45
REMARK   21  A    between atoms: _45  and  _46
REMARK   22  A    between atoms: _46  and  ZN_336
REMARK   23  A    between atoms: _48  and  _50
REMARK   24  A    between atoms: _50  and  _51
REMARK   25  A    between atoms: _50  and  _53
REMARK   26  A    between atoms: _53  and  _54
REMARK   27  A    between atoms: _54  and  _55
REMARK   28  A    between atoms: _55  and  _56
REMARK   29  A    between atoms: _65  and  _67
REMARK   30  A    between atoms: _67  and  _68
REMARK   31  A    between atoms: _67  and  _70
REMARK   32  A    between atoms: _70  and  _71
REMARK   33  A    between atoms: _74  and  _76
REMARK   34  A    between atoms: _76  and  _77
REMARK   35  A    between atoms: _80  and  _82
REMARK   36  A    between atoms: _82  and  _83
REMARK   37  A    between atoms: _82  and  _85
REMARK   38  A    between atoms: _85  and  _86
REMARK   39  A    between atoms: _91  and  _93
REMARK   40  A    between atoms: _93  and  _94
REMARK   41  A    between atoms: _93  and  _96
REMARK   42  A    between atoms: _96  and  _97
REMARK   43  A    between atoms: _97  and  _98
REMARK   44  A    between atoms: _98  and  _99
REMARK   45  A    between atoms: _108  and  _110
REMARK   46  A    between atoms: _110  and  _111
REMARK   47  A    between atoms: _113  and  _115
REMARK   48  A    between atoms: _115  and  _116
REMARK   49  A    between atoms: _115  and  _118
REMARK   50  A    between atoms: _118  and  _119
REMARK   51  A    between atoms: _119  and  _120
REMARK   52  A    between atoms: _123  and  _125
REMARK   53  A    between atoms: _125  and  _126
REMARK   54  A    between atoms: _125  and  _128
REMARK   55  A    between atoms: _128  and  _129
REMARK   56  A    between atoms: _132  and  _134
REMARK   57  A    between atoms: _134  and  _135
REMARK   58  A    between atoms: _134  and  _137
REMARK   59  A    between atoms: _137  and  _138
REMARK   60  A    between atoms: _140  and  _142
REMARK   61  A    between atoms: _142  and  _143
REMARK   62  A    between atoms: _142  and  _145
REMARK   63  A    between atoms: _145  and  _146
REMARK   64  A    between atoms: _149  and  _151
REMARK   65  A    between atoms: _151  and  _152
REMARK   66  A    between atoms: _151  and  _154
REMARK   67  A    between atoms: _154  and  _155
REMARK   68  A    between atoms: _156  and  ZN_336
REMARK   69  A    between atoms: _160  and  _162
REMARK   70  A    between atoms: _162  and  _163
REMARK   71  A    between atoms: _162  and  _165
REMARK   72  A    between atoms: _165  and  _166
REMARK   73  A    between atoms: _168  and  _170
REMARK   74  A    between atoms: _170  and  _171
REMARK   75  A    between atoms: _170  and  _173
REMARK   76  A    between atoms: _173  and  _174
REMARK   77  A    between atoms: _179  and  _180
REMARK   78  A    between atoms: _182  and  _184
REMARK   79  A    between atoms: _184  and  _185
REMARK   80  A    between atoms: _184  and  _187
REMARK   81  A    between atoms: _187  and  _188
REMARK   82  A    between atoms: _190  and  _192
REMARK   83  A    between atoms: _192  and  _193
REMARK   84  A    between atoms: _192  and  _195
REMARK   85  A    between atoms: _195  and  _196
REMARK   86  A    between atoms: _199  and  _201
REMARK   87  A    between atoms: _201  and  _202
REMARK   88  A    between atoms: _201  and  _204
REMARK   89  A    between atoms: _204  and  _205
REMARK   90  A    between atoms: _208  and  _210
REMARK   91  A    between atoms: _210  and  _211
REMARK   92  A    between atoms: _210  and  _213
REMARK   93  A    between atoms: _213  and  _214
REMARK   94  A    between atoms: _217  and  _219
REMARK   95  A    between atoms: _219  and  _220
REMARK   96  A    between atoms: _219  and  _222
REMARK   97  A    between atoms: _222  and  _223
REMARK   98  A    between atoms: _226  and  _228
REMARK   99  A    between atoms: _228  and  _229
REMARK  100  A    between atoms: _228  and  _231
REMARK  101  A    between atoms: _231  and  _232
REMARK  102  A    between atoms: _237  and  _238
REMARK  103  A    between atoms: _240  and  _242
REMARK  104  A    between atoms: _242  and  _243
REMARK  105  A    between atoms: _242  and  _245
REMARK  106  A    between atoms: _245  and  _246
REMARK  107  A    between atoms: _246  and  _247
REMARK  108  A    between atoms: _252  and  _254
REMARK  109  A    between atoms: _254  and  _255
REMARK  110  A    between atoms: _258  and  _260
REMARK  111  A    between atoms: _260  and  _261
REMARK  112  A    between atoms: _260  and  _263
REMARK  113  A    between atoms: _263  and  _264
REMARK  114  A    between atoms: _266  and  _268
REMARK  115  A    between atoms: _268  and  _269
REMARK  116  A    between atoms: _271  and  _273
REMARK  117  A    between atoms: _273  and  _274
REMARK  118  A    between atoms: _276  and  _278
REMARK  119  A    between atoms: _278  and  _279
REMARK  120  A    between atoms: _278  and  _281
REMARK  121  A    between atoms: _281  and  _282
REMARK  122  A    between atoms: _284  and  _286
REMARK  123  A    between atoms: _286  and  _287
REMARK  124  A    between atoms: _286  and  _289
REMARK  125  A    between atoms: _289  and  _290
REMARK  126  A    between atoms: _293  and  _295
REMARK  127  A    between atoms: _295  and  _296
REMARK  128  A    between atoms: _295  and  _298
REMARK  129  A    between atoms: _298  and  _299
REMARK  130  A    between atoms: _305  and  _307
REMARK  131  A    between atoms: _307  and  _308
REMARK  132  A    between atoms: _307  and  _310
REMARK  133  A    between atoms: _310  and  _311
REMARK  134  A    between atoms: _311  and  _312
REMARK  135  A    between atoms: _315  and  _317
REMARK  136  A    between atoms: _317  and  _318
REMARK  137  A    between atoms: _317  and  _320
REMARK  138  A    between atoms: _320  and  _321
REMARK  139  A    between atoms: _324  and  _326
REMARK  140  A    between atoms: _326  and  _327
REMARK  141  A    between atoms: _326  and  _329
REMARK  142  A    between atoms: _329  and  _330
REMARK                            x       y       z     vdW  Elec       q    Type
REMARK                         _______ _______ _______ _____ _____    ______ ____
ROOT
ATOM      1  C   PHE A   2      10.830  -8.230  15.523  0.00  0.00    +0.241 C 
ATOM      2  O   PHE A   2      11.079  -7.362  16.371  0.00  0.00    -0.273 OA
ATOM      3  N   GLU A   3      11.451  -9.414  15.492  0.00  0.00    -0.297 N 
ATOM      4  H   GLU A   3      11.130 -10.140  14.820  0.00  0.00    +0.150 HD
ENDROOT
BRANCH   3   5
ATOM      5  CA  GLU A   3      12.571  -9.710  16.382  0.00  0.00    +0.149 C 
BRANCH   5   6
ATOM      6  C   GLU A   3      13.659  -9.973  15.347  0.00  0.00    +0.241 C 
ATOM      7  N   LEU A   4      14.624  -9.069  15.271  0.00  0.00    -0.298 N 
ATOM      8  H   LEU A   4      14.662  -8.289  15.958  0.00  0.00    +0.150 HD
ATOM      9  O   GLU A   3      13.623 -10.962  14.627  0.00  0.00    -0.273 OA
BRANCH   7  10
ATOM     10  CA  LEU A   4      15.641  -9.168  14.215  0.00  0.00    +0.137 C 
BRANCH  10  11
ATOM     11  C   LEU A   4      16.742 -10.174  14.497  0.00  0.00    +0.227 C 
ATOM     12  O   LEU A   4      16.635 -10.973  15.410  0.00  0.00    -0.286 OA
ENDBRANCH  10  11
BRANCH  10  13
ATOM     13  CB  LEU A   4      16.244  -7.774  13.972  0.00  0.00    +0.028 C 
BRANCH  13  14
ATOM     14  CG  LEU A   4      15.226  -6.635  13.788  0.00  0.00    +0.002 C 
ATOM     15  CD2 LEU A   4      15.949  -5.316  13.486  0.00  0.00    +0.000 C 
ATOM     16  CD1 LEU A   4      14.268  -6.994  12.654  0.00  0.00    +0.000 C 
ENDBRANCH  13  14
ENDBRANCH  10  13
ENDBRANCH   7  10
ENDBRANCH   5   6
BRANCH   5  17
ATOM     17  CB  GLU A   3      12.294 -10.942  17.259  0.00  0.00    +0.041 C 
BRANCH  17  18
ATOM     18  CG  GLU A   3      11.107 -10.633  18.177  0.00  0.00    +0.116 C 
BRANCH  18  19
ATOM     19  CD  GLU A   3      11.018 -11.505  19.405  0.00  0.00    +0.365 C 
ATOM     20  OE2 GLU A   3      10.189 -11.166  20.280  0.00  0.00    -0.246 OA
ATOM     21  OE1 GLU A   3      11.755 -12.505  19.502  0.00  0.00    -0.246 OA
ENDBRANCH  18  19
ENDBRANCH  17  18
ENDBRANCH   5  17
ENDBRANCH   3   5
BRANCH   1  22
ATOM     22  CA  PHE A   2       9.752  -7.966  14.454  0.00  0.00    +0.153 C 
BRANCH  22  25
ATOM     23  C   THR A   1       7.506  -7.939  15.432  0.00  0.00    +0.241 C 
ATOM     24  O   THR A   1       7.302  -9.126  15.150  0.00  0.00    -0.274 OA
ATOM     25  N   PHE A   2       8.628  -7.291  15.117  0.00  0.00    -0.297 N 
ATOM     26  H   PHE A   2       8.710  -6.280  15.347  0.00  0.00    +0.150 HD
BRANCH  23  27
ATOM     27  CA  THR A   1       6.449  -7.126  16.172  0.00  0.00    +0.172 C 
BRANCH  27  28
ATOM     28  CB  THR A   1       6.482  -7.566  17.657  0.00  0.00    +0.135 C 
ATOM     29  CG2 THR A   1       5.500  -6.771  18.467  0.00  0.00    +0.034 C 
BRANCH  28  30
ATOM     30  OG1 THR A   1       6.168  -8.960  17.761  0.00  0.00    -0.383 OA
ATOM     31  HG1 THR A   1       6.833  -9.486  17.250  0.00  0.00    +0.210 HD
ENDBRANCH  28  30
ENDBRANCH  27  28
BRANCH  27  32
ATOM     32  N   THR A   1       5.156  -7.356  15.521  0.00  0.00    -0.236 NA
ATOM     33  H   THR A   1       4.762  -8.317  15.464  0.00  0.00    +0.142 HD
ENDBRANCH  27  32
ENDBRANCH  23  27
ENDBRANCH  22  25
BRANCH  22  34
ATOM     34  CB  PHE A   2      10.424  -7.048  13.416  0.00  0.00    +0.055 C 
BRANCH  34  35
ATOM     35  CG  PHE A   2       9.792  -7.061  12.043  0.00  0.00    -0.020 A 
ATOM     36  CD2 PHE A   2       8.694  -6.239  11.766  0.00  0.00    -0.004 A 
ATOM     37  CE2 PHE A   2       8.144  -6.187  10.471  0.00  0.00    -0.000 A 
ATOM     38  CZ  PHE A   2       8.692  -6.963   9.450  0.00  0.00    -0.000 A 
ATOM     39  CE1 PHE A   2       9.785  -7.790   9.720  0.00  0.00    -0.000 A 
ATOM     40  CD1 PHE A   2      10.326  -7.833  11.018  0.00  0.00    -0.004 A 
ENDBRANCH  34  35
ENDBRANCH  22  34
ENDBRANCH   1  22
TORSDOF 17
REMARK  Name = ../refined-set-2016/1f57/1f57_pocket.pdb
REMARK  142 active torsions:
REMARK  status: ('A' for Active; 'I' for Inactive)
REMARK    1  A    between atoms: _1  and  _3
REMARK    2  A    between atoms: _3  and  _4
REMARK    3  A    between atoms: _3  and  _6
REMARK    4  A    between atoms: _6  and  _7
REMARK    5  A    between atoms: _10  and  _12
REMARK    6  A    between atoms: _12  and  _13
REMARK    7  A    between atoms: _12  and  _15
REMARK    8  A    between atoms: _15  and  _16
REMARK    9  A    between atoms: _17  and  ZN_336
REMARK   10  A    between atoms: _21  and  _23
REMARK   11  A    between atoms: _23  and  _24
REMARK   12  A    between atoms: _23  and  _26
REMARK   13  A    between atoms: _26  and  _27
REMARK   14  A    between atoms: _27  and  _28
REMARK   15  A    between atoms: _28  and  _29
REMARK   16  A    between atoms: _38  and  _40
REMARK   17  A    between atoms: _40  and  _41
REMARK   18  A    between atoms: _40  and  _43
REMARK   19  A    between atoms: _43  and  _44
REMARK   20  A    between atoms: _44  and  _45
REMARK   21  A    between atoms: _45  and  _46
REMARK   22  A    between atoms: _46  and  ZN_336
REMARK   23  A    between atoms: _48  and  _50
REMARK   24  A    between atoms: _50  and  _51
REMARK   25  A    between atoms: _50  and  _53
REMARK   26  A    between atoms: _53  and  _54
REMARK   27  A    between atoms: _54  and  _55
REMARK   28  A    between atoms: _55  and  _56
REMARK   29  A    between atoms: _65  and  _67
REMARK   30  A    between atoms: _67  and  _68
REMARK   31  A    between atoms: _67  and  _70
REMARK   32  A    between atoms: _70  and  _71
REMARK   33  A    between atoms: _74  and  _76
REMARK   34  A    between atoms: _76  and  _77
REMARK   35  A    between atoms: _80  and  _82
REMARK   36  A    between atoms: _82  and  _83
REMARK   37  A    between atoms: _82  and  _85
REMARK   38  A    between atoms: _85  and  _86
REMARK   39  A    between atoms: _91  and  _93
REMARK   40  A    between atoms: _93  and  _94
REMARK   41  A    between atoms: _93  and  _96
REMARK   42  A    between atoms: _96  and  _97
REMARK   43  A    between atoms: _97  and  _98
REMARK   44  A    between atoms: _98  and  _99
REMARK   45  A    between atoms: _108  and  _110
REMARK   46  A    between atoms: _110  and  _111
REMARK   47  A    between atoms: _113  and  _115
REMARK   48  A    between atoms: _115  and  _116
REMARK   49  A    between atoms: _115  and  _118
REMARK   50  A    between atoms: _118  and  _119
REMARK   51  A    between atoms: _119  and  _120
REMARK   52  A    between atoms: _123  and  _125
REMARK   53  A    between atoms: _125  and  _126
REMARK   54  A    between atoms: _125  and  _128
REMARK   55  A    between atoms: _128  and  _129
REMARK   56  A    between atoms: _132  and  _134
REMARK   57  A    between atoms: _134  and  _135
REMARK   58  A    between atoms: _134  and  _137
REMARK   59  A    between atoms: _137  and  _138
REMARK   60  A    between atoms: _140  and  _142
REMARK   61  A    between atoms: _142  and  _143
REMARK   62  A    between atoms: _142  and  _145
REMARK   63  A    between atoms: _145  and  _146
REMARK   64  A    between atoms: _149  and  _151
REMARK   65  A    between atoms: _151  and  _152
REMARK   66  A    between atoms: _151  and  _154
REMARK   67  A    between atoms: _154  and  _155
REMARK   68  A    between atoms: _156  and  ZN_336
REMARK   69  A    between atoms: _160  and  _162
REMARK   70  A    between atoms: _162  and  _163
REMARK   71  A    between atoms: _162  and  _165
REMARK   72  A    between atoms: _165  and  _166
REMARK   73  A    between atoms: _168  and  _170
REMARK   74  A    between atoms: _170  and  _171
REMARK   75  A    between atoms: _170  and  _173
REMARK   76  A    between atoms: _173  and  _174
REMARK   77  A    between atoms: _179  and  _180
REMARK   78  A    between atoms: _182  and  _184
REMARK   79  A    between atoms: _184  and  _185
REMARK   80  A    between atoms: _184  and  _187
REMARK   81  A    between atoms: _187  and  _188
REMARK   82  A    between atoms: _190  and  _192
REMARK   83  A    between atoms: _192  and  _193
REMARK   84  A    between atoms: _192  and  _195
REMARK   85  A    between atoms: _195  and  _196
REMARK   86  A    between atoms: _199  and  _201
REMARK   87  A    between atoms: _201  and  _202
REMARK   88  A    between atoms: _201  and  _204
REMARK   89  A    between atoms: _204  and  _205
REMARK   90  A    between atoms: _208  and  _210
REMARK   91  A    between atoms: _210  and  _211
REMARK   92  A    between atoms: _210  and  _213
REMARK   93  A    between atoms: _213  and  _214
REMARK   94  A    between atoms: _217  and  _219
REMARK   95  A    between atoms: _219  and  _220
REMARK   96  A    between atoms: _219  and  _222
REMARK   97  A    between atoms: _222  and  _223
REMARK   98  A    between atoms: _226  and  _228
REMARK   99  A    between atoms: _228  and  _229
REMARK  100  A    between atoms: _228  and  _231
REMARK  101  A    between atoms: _231  and  _232
REMARK  102  A    between atoms: _237  and  _238
REMARK  103  A    between atoms: _240  and  _242
REMARK  104  A    between atoms: _242  and  _243
REMARK  105  A    between atoms: _242  and  _245
REMARK  106  A    between atoms: _245  and  _246
REMARK  107  A    between atoms: _246  and  _247
REMARK  108  A    between atoms: _252  and  _254
REMARK  109  A    between atoms: _254  and  _255
REMARK  110  A    between atoms: _258  and  _260
REMARK  111  A    between atoms: _260  and  _261
REMARK  112  A    between atoms: _260  and  _263
REMARK  113  A    between atoms: _263  and  _264
REMARK  114  A    between atoms: _266  and  _268
REMARK  115  A    between atoms: _268  and  _269
REMARK  116  A    between atoms: _271  and  _273
REMARK  117  A    between atoms: _273  and  _274
REMARK  118  A    between atoms: _276  and  _278
REMARK  119  A    between atoms: _278  and  _279
REMARK  120  A    between atoms: _278  and  _281
REMARK  121  A    between atoms: _281  and  _282
REMARK  122  A    between atoms: _284  and  _286
REMARK  123  A    between atoms: _286  and  _287
REMARK  124  A    between atoms: _286  and  _289
REMARK  125  A    between atoms: _289  and  _290
REMARK  126  A    between atoms: _293  and  _295
REMARK  127  A    between atoms: _295  and  _296
REMARK  128  A    between atoms: _295  and  _298
REMARK  129  A    between atoms: _298  and  _299
REMARK  130  A    between atoms: _305  and  _307
REMARK  131  A    between atoms: _307  and  _308
REMARK  132  A    between atoms: _307  and  _310
REMARK  133  A    between atoms: _310  and  _311
REMARK  134  A    between atoms: _311  and  _312
REMARK  135  A    between atoms: _315  and  _317
REMARK  136  A    between atoms: _317  and  _318
REMARK  137  A    between atoms: _317  and  _320
REMARK  138  A    between atoms: _320  and  _321
REMARK  139  A    between atoms: _324  and  _326
REMARK  140  A    between atoms: _326  and  _327
REMARK  141  A    between atoms: _326  and  _329
REMARK  142  A    between atoms: _329  and  _330
REMARK                            x       y       z     vdW  Elec       q    Type
REMARK                         _______ _______ _______ _____ _____    ______ ____
ROOT
ATOM      1  CB  PHE A   1      22.058  -8.179  22.985  0.00  0.00    +0.051 C 
ENDROOT
BRANCH   1   2
ATOM      2  CG  PHE A   1      20.852  -8.827  23.592  0.00  0.00    -0.020 A 
ATOM      3  CD2 PHE A   1      20.978  -9.681  24.679  0.00  0.00    -0.004 A 
ATOM      4  CE2 PHE A   1      19.864 -10.327  25.216  0.00  0.00    -0.000 A 
ATOM      5  CZ  PHE A   1      18.610 -10.121  24.665  0.00  0.00    -0.000 A 
ATOM      6  CE1 PHE A   1      18.459  -9.265  23.577  0.00  0.00    -0.000 A 
ATOM      7  CD1 PHE A   1      19.578  -8.615  23.038  0.00  0.00    -0.004 A 
ENDBRANCH   1   2
BRANCH   1   8
ATOM      8  CA  PHE A   1      22.337  -8.643  21.548  0.00  0.00    +0.137 C 
BRANCH   8   9
ATOM      9  N   PHE A   1      22.419 -10.103  21.498  0.00  0.00    -0.239 NA
ATOM     10  H   PHE A   1      22.470 -10.645  22.384  0.00  0.00    +0.142 HD
ENDBRANCH   8   9
BRANCH   8  11
ATOM     11  C   PHE A   1      23.617  -7.966  21.040  0.00  0.00    +0.224 C 
ATOM     12  O   PHE A   1      23.591  -6.791  20.635  0.00  0.00    -0.287 OA
ENDBRANCH   8  11
ENDBRANCH   1   8
TORSDOF 4
REMARK  Name = ../refined-set-2016/1f57/1f57_pocket.pdb
REMARK  142 active torsions:
REMARK  status: ('A' for Active; 'I' for Inactive)
REMARK    1  A    between atoms: _1  and  _3
REMARK    2  A    between atoms: _3  and  _4
REMARK    3  A    between atoms: _3  and  _6
REMARK    4  A    between atoms: _6  and  _7
REMARK    5  A    between atoms: _10  and  _12
REMARK    6  A    between atoms: _12  and  _13
REMARK    7  A    between atoms: _12  and  _15
REMARK    8  A    between atoms: _15  and  _16
REMARK    9  A    between atoms: _17  and  ZN_336
REMARK   10  A    between atoms: _21  and  _23
REMARK   11  A    between atoms: _23  and  _24
REMARK   12  A    between atoms: _23  and  _26
REMARK   13  A    between atoms: _26  and  _27
REMARK   14  A    between atoms: _27  and  _28
REMARK   15  A    between atoms: _28  and  _29
REMARK   16  A    between atoms: _38  and  _40
REMARK   17  A    between atoms: _40  and  _41
REMARK   18  A    between atoms: _40  and  _43
REMARK   19  A    between atoms: _43  and  _44
REMARK   20  A    between atoms: _44  and  _45
REMARK   21  A    between atoms: _45  and  _46
REMARK   22  A    between atoms: _46  and  ZN_336
REMARK   23  A    between atoms: _48  and  _50
REMARK   24  A    between atoms: _50  and  _51
REMARK   25  A    between atoms: _50  and  _53
REMARK   26  A    between atoms: _53  and  _54
REMARK   27  A    between atoms: _54  and  _55
REMARK   28  A    between atoms: _55  and  _56
REMARK   29  A    between atoms: _65  and  _67
REMARK   30  A    between atoms: _67  and  _68
REMARK   31  A    between atoms: _67  and  _70
REMARK   32  A    between atoms: _70  and  _71
REMARK   33  A    between atoms: _74  and  _76
REMARK   34  A    between atoms: _76  and  _77
REMARK   35  A    between atoms: _80  and  _82
REMARK   36  A    between atoms: _82  and  _83
REMARK   37  A    between atoms: _82  and  _85
REMARK   38  A    between atoms: _85  and  _86
REMARK   39  A    between atoms: _91  and  _93
REMARK   40  A    between atoms: _93  and  _94
REMARK   41  A    between atoms: _93  and  _96
REMARK   42  A    between atoms: _96  and  _97
REMARK   43  A    between atoms: _97  and  _98
REMARK   44  A    between atoms: _98  and  _99
REMARK   45  A    between atoms: _108  and  _110
REMARK   46  A    between atoms: _110  and  _111
REMARK   47  A    between atoms: _113  and  _115
REMARK   48  A    between atoms: _115  and  _116
REMARK   49  A    between atoms: _115  and  _118
REMARK   50  A    between atoms: _118  and  _119
REMARK   51  A    between atoms: _119  and  _120
REMARK   52  A    between atoms: _123  and  _125
REMARK   53  A    between atoms: _125  and  _126
REMARK   54  A    between atoms: _125  and  _128
REMARK   55  A    between atoms: _128  and  _129
REMARK   56  A    between atoms: _132  and  _134
REMARK   57  A    between atoms: _134  and  _135
REMARK   58  A    between atoms: _134  and  _137
REMARK   59  A    between atoms: _137  and  _138
REMARK   60  A    between atoms: _140  and  _142
REMARK   61  A    between atoms: _142  and  _143
REMARK   62  A    between atoms: _142  and  _145
REMARK   63  A    between atoms: _145  and  _146
REMARK   64  A    between atoms: _149  and  _151
REMARK   65  A    between atoms: _151  and  _152
REMARK   66  A    between atoms: _151  and  _154
REMARK   67  A    between atoms: _154  and  _155
REMARK   68  A    between atoms: _156  and  ZN_336
REMARK   69  A    between atoms: _160  and  _162
REMARK   70  A    between atoms: _162  and  _163
REMARK   71  A    between atoms: _162  and  _165
REMARK   72  A    between atoms: _165  and  _166
REMARK   73  A    between atoms: _168  and  _170
REMARK   74  A    between atoms: _170  and  _171
REMARK   75  A    between atoms: _170  and  _173
REMARK   76  A    between atoms: _173  and  _174
REMARK   77  A    between atoms: _179  and  _180
REMARK   78  A    between atoms: _182  and  _184
REMARK   79  A    between atoms: _184  and  _185
REMARK   80  A    between atoms: _184  and  _187
REMARK   81  A    between atoms: _187  and  _188
REMARK   82  A    between atoms: _190  and  _192
REMARK   83  A    between atoms: _192  and  _193
REMARK   84  A    between atoms: _192  and  _195
REMARK   85  A    between atoms: _195  and  _196
REMARK   86  A    between atoms: _199  and  _201
REMARK   87  A    between atoms: _201  and  _202
REMARK   88  A    between atoms: _201  and  _204
REMARK   89  A    between atoms: _204  and  _205
REMARK   90  A    between atoms: _208  and  _210
REMARK   91  A    between atoms: _210  and  _211
REMARK   92  A    between atoms: _210  and  _213
REMARK   93  A    between atoms: _213  and  _214
REMARK   94  A    between atoms: _217  and  _219
REMARK   95  A    between atoms: _219  and  _220
REMARK   96  A    between atoms: _219  and  _222
REMARK   97  A    between atoms: _222  and  _223
REMARK   98  A    between atoms: _226  and  _228
REMARK   99  A    between atoms: _228  and  _229
REMARK  100  A    between atoms: _228  and  _231
REMARK  101  A    between atoms: _231  and  _232
REMARK  102  A    between atoms: _237  and  _238
REMARK  103  A    between atoms: _240  and  _242
REMARK  104  A    between atoms: _242  and  _243
REMARK  105  A    between atoms: _242  and  _245
REMARK  106  A    between atoms: _245  and  _246
REMARK  107  A    between atoms: _246  and  _247
REMARK  108  A    between atoms: _252  and  _254
REMARK  109  A    between atoms: _254  and  _255
REMARK  110  A    between atoms: _258  and  _260
REMARK  111  A    between atoms: _260  and  _261
REMARK  112  A    between atoms: _260  and  _263
REMARK  113  A    between atoms: _263  and  _264
REMARK  114  A    between atoms: _266  and  _268
REMARK  115  A    between atoms: _268  and  _269
REMARK  116  A    between atoms: _271  and  _273
REMARK  117  A    between atoms: _273  and  _274
REMARK  118  A    between atoms: _276  and  _278
REMARK  119  A    between atoms: _278  and  _279
REMARK  120  A    between atoms: _278  and  _281
REMARK  121  A    between atoms: _281  and  _282
REMARK  122  A    between atoms: _284  and  _286
REMARK  123  A    between atoms: _286  and  _287
REMARK  124  A    between atoms: _286  and  _289
REMARK  125  A    between atoms: _289  and  _290
REMARK  126  A    between atoms: _293  and  _295
REMARK  127  A    between atoms: _295  and  _296
REMARK  128  A    between atoms: _295  and  _298
REMARK  129  A    between atoms: _298  and  _299
REMARK  130  A    between atoms: _305  and  _307
REMARK  131  A    between atoms: _307  and  _308
REMARK  132  A    between atoms: _307  and  _310
REMARK  133  A    between atoms: _310  and  _311
REMARK  134  A    between atoms: _311  and  _312
REMARK  135  A    between atoms: _315  and  _317
REMARK  136  A    between atoms: _317  and  _318
REMARK  137  A    between atoms: _317  and  _320
REMARK  138  A    between atoms: _320  and  _321
REMARK  139  A    between atoms: _324  and  _326
REMARK  140  A    between atoms: _326  and  _327
REMARK  141  A    between atoms: _326  and  _329
REMARK  142  A    between atoms: _329  and  _330
REMARK                            x       y       z     vdW  Elec       q    Type
REMARK                         _______ _______ _______ _____ _____    ______ ____
ROOT
ATOM      1  O   HOH     1      13.626  -2.792  21.256  0.00  0.00    +0.000 OA
ENDROOT
TORSDOF 0
REMARK  Name = ../refined-set-2016/1f57/1f57_pocket.pdb
REMARK  142 active torsions:
REMARK  status: ('A' for Active; 'I' for Inactive)
REMARK    1  A    between atoms: _1  and  _3
REMARK    2  A    between atoms: _3  and  _4
REMARK    3  A    between atoms: _3  and  _6
REMARK    4  A    between atoms: _6  and  _7
REMARK    5  A    between atoms: _10  and  _12
REMARK    6  A    between atoms: _12  and  _13
REMARK    7  A    between atoms: _12  and  _15
REMARK    8  A    between atoms: _15  and  _16
REMARK    9  A    between atoms: _17  and  ZN_336
REMARK   10  A    between atoms: _21  and  _23
REMARK   11  A    between atoms: _23  and  _24
REMARK   12  A    between atoms: _23  and  _26
REMARK   13  A    between atoms: _26  and  _27
REMARK   14  A    between atoms: _27  and  _28
REMARK   15  A    between atoms: _28  and  _29
REMARK   16  A    between atoms: _38  and  _40
REMARK   17  A    between atoms: _40  and  _41
REMARK   18  A    between atoms: _40  and  _43
REMARK   19  A    between atoms: _43  and  _44
REMARK   20  A    between atoms: _44  and  _45
REMARK   21  A    between atoms: _45  and  _46
REMARK   22  A    between atoms: _46  and  ZN_336
REMARK   23  A    between atoms: _48  and  _50
REMARK   24  A    between atoms: _50  and  _51
REMARK   25  A    between atoms: _50  and  _53
REMARK   26  A    between atoms: _53  and  _54
REMARK   27  A    between atoms: _54  and  _55
REMARK   28  A    between atoms: _55  and  _56
REMARK   29  A    between atoms: _65  and  _67
REMARK   30  A    between atoms: _67  and  _68
REMARK   31  A    between atoms: _67  and  _70
REMARK   32  A    between atoms: _70  and  _71
REMARK   33  A    between atoms: _74  and  _76
REMARK   34  A    between atoms: _76  and  _77
REMARK   35  A    between atoms: _80  and  _82
REMARK   36  A    between atoms: _82  and  _83
REMARK   37  A    between atoms: _82  and  _85
REMARK   38  A    between atoms: _85  and  _86
REMARK   39  A    between atoms: _91  and  _93
REMARK   40  A    between atoms: _93  and  _94
REMARK   41  A    between atoms: _93  and  _96
REMARK   42  A    between atoms: _96  and  _97
REMARK   43  A    between atoms: _97  and  _98
REMARK   44  A    between atoms: _98  and  _99
REMARK   45  A    between atoms: _108  and  _110
REMARK   46  A    between atoms: _110  and  _111
REMARK   47  A    between atoms: _113  and  _115
REMARK   48  A    between atoms: _115  and  _116
REMARK   49  A    between atoms: _115  and  _118
REMARK   50  A    between atoms: _118  and  _119
REMARK   51  A    between atoms: _119  and  _120
REMARK   52  A    between atoms: _123  and  _125
REMARK   53  A    between atoms: _125  and  _126
REMARK   54  A    between atoms: _125  and  _128
REMARK   55  A    between atoms: _128  and  _129
REMARK   56  A    between atoms: _132  and  _134
REMARK   57  A    between atoms: _134  and  _135
REMARK   58  A    between atoms: _134  and  _137
REMARK   59  A    between atoms: _137  and  _138
REMARK   60  A    between atoms: _140  and  _142
REMARK   61  A    between atoms: _142  and  _143
REMARK   62  A    between atoms: _142  and  _145
REMARK   63  A    between atoms: _145  and  _146
REMARK   64  A    between atoms: _149  and  _151
REMARK   65  A    between atoms: _151  and  _152
REMARK   66  A    between atoms: _151  and  _154
REMARK   67  A    between atoms: _154  and  _155
REMARK   68  A    between atoms: _156  and  ZN_336
REMARK   69  A    between atoms: _160  and  _162
REMARK   70  A    between atoms: _162  and  _163
REMARK   71  A    between atoms: _162  and  _165
REMARK   72  A    between atoms: _165  and  _166
REMARK   73  A    between atoms: _168  and  _170
REMARK   74  A    between atoms: _170  and  _171
REMARK   75  A    between atoms: _170  and  _173
REMARK   76  A    between atoms: _173  and  _174
REMARK   77  A    between atoms: _179  and  _180
REMARK   78  A    between atoms: _182  and  _184
REMARK   79  A    between atoms: _184  and  _185
REMARK   80  A    between atoms: _184  and  _187
REMARK   81  A    between atoms: _187  and  _188
REMARK   82  A    between atoms: _190  and  _192
REMARK   83  A    between atoms: _192  and  _193
REMARK   84  A    between atoms: _192  and  _195
REMARK   85  A    between atoms: _195  and  _196
REMARK   86  A    between atoms: _199  and  _201
REMARK   87  A    between atoms: _201  and  _202
REMARK   88  A    between atoms: _201  and  _204
REMARK   89  A    between atoms: _204  and  _205
REMARK   90  A    between atoms: _208  and  _210
REMARK   91  A    between atoms: _210  and  _211
REMARK   92  A    between atoms: _210  and  _213
REMARK   93  A    between atoms: _213  and  _214
REMARK   94  A    between atoms: _217  and  _219
REMARK   95  A    between atoms: _219  and  _220
REMARK   96  A    between atoms: _219  and  _222
REMARK   97  A    between atoms: _222  and  _223
REMARK   98  A    between atoms: _226  and  _228
REMARK   99  A    between atoms: _228  and  _229
REMARK  100  A    between atoms: _228  and  _231
REMARK  101  A    between atoms: _231  and  _232
REMARK  102  A    between atoms: _237  and  _238
REMARK  103  A    between atoms: _240  and  _242
REMARK  104  A    between atoms: _242  and  _243
REMARK  105  A    between atoms: _242  and  _245
REMARK  106  A    between atoms: _245  and  _246
REMARK  107  A    between atoms: _246  and  _247
REMARK  108  A    between atoms: _252  and  _254
REMARK  109  A    between atoms: _254  and  _255
REMARK  110  A    between atoms: _258  and  _260
REMARK  111  A    between atoms: _260  and  _261
REMARK  112  A    between atoms: _260  and  _263
REMARK  113  A    between atoms: _263  and  _264
REMARK  114  A    between atoms: _266  and  _268
REMARK  115  A    between atoms: _268  and  _269
REMARK  116  A    between atoms: _271  and  _273
REMARK  117  A    between atoms: _273  and  _274
REMARK  118  A    between atoms: _276  and  _278
REMARK  119  A    between atoms: _278  and  _279
REMARK  120  A    between atoms: _278  and  _281
REMARK  121  A    between atoms: _281  and  _282
REMARK  122  A    between atoms: _284  and  _286
REMARK  123  A    between atoms: _286  and  _287
REMARK  124  A    between atoms: _286  and  _289
REMARK  125  A    between atoms: _289  and  _290
REMARK  126  A    between atoms: _293  and  _295
REMARK  127  A    between atoms: _295  and  _296
REMARK  128  A    between atoms: _295  and  _298
REMARK  129  A    between atoms: _298  and  _299
REMARK  130  A    between atoms: _305  and  _307
REMARK  131  A    between atoms: _307  and  _308
REMARK  132  A    between atoms: _307  and  _310
REMARK  133  A    between atoms: _310  and  _311
REMARK  134  A    between atoms: _311  and  _312
REMARK  135  A    between atoms: _315  and  _317
REMARK  136  A    between atoms: _317  and  _318
REMARK  137  A    between atoms: _317  and  _320
REMARK  138  A    between atoms: _320  and  _321
REMARK  139  A    between atoms: _324  and  _326
REMARK  140  A    between atoms: _326  and  _327
REMARK  141  A    between atoms: _326  and  _329
REMARK  142  A    between atoms: _329  and  _330
REMARK                            x       y       z     vdW  Elec       q    Type
REMARK                         _______ _______ _______ _____ _____    ______ ____
ROOT
ATOM      1  O   HOH     1      15.982  -8.116  25.421  0.00  0.00    +0.000 OA
ENDROOT
TORSDOF 0
REMARK  Name = ../refined-set-2016/1f57/1f57_pocket.pdb
REMARK  142 active torsions:
REMARK  status: ('A' for Active; 'I' for Inactive)
REMARK    1  A    between atoms: _1  and  _3
REMARK    2  A    between atoms: _3  and  _4
REMARK    3  A    between atoms: _3  and  _6
REMARK    4  A    between atoms: _6  and  _7
REMARK    5  A    between atoms: _10  and  _12
REMARK    6  A    between atoms: _12  and  _13
REMARK    7  A    between atoms: _12  and  _15
REMARK    8  A    between atoms: _15  and  _16
REMARK    9  A    between atoms: _17  and  ZN_336
REMARK   10  A    between atoms: _21  and  _23
REMARK   11  A    between atoms: _23  and  _24
REMARK   12  A    between atoms: _23  and  _26
REMARK   13  A    between atoms: _26  and  _27
REMARK   14  A    between atoms: _27  and  _28
REMARK   15  A    between atoms: _28  and  _29
REMARK   16  A    between atoms: _38  and  _40
REMARK   17  A    between atoms: _40  and  _41
REMARK   18  A    between atoms: _40  and  _43
REMARK   19  A    between atoms: _43  and  _44
REMARK   20  A    between atoms: _44  and  _45
REMARK   21  A    between atoms: _45  and  _46
REMARK   22  A    between atoms: _46  and  ZN_336
REMARK   23  A    between atoms: _48  and  _50
REMARK   24  A    between atoms: _50  and  _51
REMARK   25  A    between atoms: _50  and  _53
REMARK   26  A    between atoms: _53  and  _54
REMARK   27  A    between atoms: _54  and  _55
REMARK   28  A    between atoms: _55  and  _56
REMARK   29  A    between atoms: _65  and  _67
REMARK   30  A    between atoms: _67  and  _68
REMARK   31  A    between atoms: _67  and  _70
REMARK   32  A    between atoms: _70  and  _71
REMARK   33  A    between atoms: _74  and  _76
REMARK   34  A    between atoms: _76  and  _77
REMARK   35  A    between atoms: _80  and  _82
REMARK   36  A    between atoms: _82  and  _83
REMARK   37  A    between atoms: _82  and  _85
REMARK   38  A    between atoms: _85  and  _86
REMARK   39  A    between atoms: _91  and  _93
REMARK   40  A    between atoms: _93  and  _94
REMARK   41  A    between atoms: _93  and  _96
REMARK   42  A    between atoms: _96  and  _97
REMARK   43  A    between atoms: _97  and  _98
REMARK   44  A    between atoms: _98  and  _99
REMARK   45  A    between atoms: _108  and  _110
REMARK   46  A    between atoms: _110  and  _111
REMARK   47  A    between atoms: _113  and  _115
REMARK   48  A    between atoms: _115  and  _116
REMARK   49  A    between atoms: _115  and  _118
REMARK   50  A    between atoms: _118  and  _119
REMARK   51  A    between atoms: _119  and  _120
REMARK   52  A    between atoms: _123  and  _125
REMARK   53  A    between atoms: _125  and  _126
REMARK   54  A    between atoms: _125  and  _128
REMARK   55  A    between atoms: _128  and  _129
REMARK   56  A    between atoms: _132  and  _134
REMARK   57  A    between atoms: _134  and  _135
REMARK   58  A    between atoms: _134  and  _137
REMARK   59  A    between atoms: _137  and  _138
REMARK   60  A    between atoms: _140  and  _142
REMARK   61  A    between atoms: _142  and  _143
REMARK   62  A    between atoms: _142  and  _145
REMARK   63  A    between atoms: _145  and  _146
REMARK   64  A    between atoms: _149  and  _151
REMARK   65  A    between atoms: _151  and  _152
REMARK   66  A    between atoms: _151  and  _154
REMARK   67  A    between atoms: _154  and  _155
REMARK   68  A    between atoms: _156  and  ZN_336
REMARK   69  A    between atoms: _160  and  _162
REMARK   70  A    between atoms: _162  and  _163
REMARK   71  A    between atoms: _162  and  _165
REMARK   72  A    between atoms: _165  and  _166
REMARK   73  A    between atoms: _168  and  _170
REMARK   74  A    between atoms: _170  and  _171
REMARK   75  A    between atoms: _170  and  _173
REMARK   76  A    between atoms: _173  and  _174
REMARK   77  A    between atoms: _179  and  _180
REMARK   78  A    between atoms: _182  and  _184
REMARK   79  A    between atoms: _184  and  _185
REMARK   80  A    between atoms: _184  and  _187
REMARK   81  A    between atoms: _187  and  _188
REMARK   82  A    between atoms: _190  and  _192
REMARK   83  A    between atoms: _192  and  _193
REMARK   84  A    between atoms: _192  and  _195
REMARK   85  A    between atoms: _195  and  _196
REMARK   86  A    between atoms: _199  and  _201
REMARK   87  A    between atoms: _201  and  _202
REMARK   88  A    between atoms: _201  and  _204
REMARK   89  A    between atoms: _204  and  _205
REMARK   90  A    between atoms: _208  and  _210
REMARK   91  A    between atoms: _210  and  _211
REMARK   92  A    between atoms: _210  and  _213
REMARK   93  A    between atoms: _213  and  _214
REMARK   94  A    between atoms: _217  and  _219
REMARK   95  A    between atoms: _219  and  _220
REMARK   96  A    between atoms: _219  and  _222
REMARK   97  A    between atoms: _222  and  _223
REMARK   98  A    between atoms: _226  and  _228
REMARK   99  A    between atoms: _228  and  _229
REMARK  100  A    between atoms: _228  and  _231
REMARK  101  A    between atoms: _231  and  _232
REMARK  102  A    between atoms: _237  and  _238
REMARK  103  A    between atoms: _240  and  _242
REMARK  104  A    between atoms: _242  and  _243
REMARK  105  A    between atoms: _242  and  _245
REMARK  106  A    between atoms: _245  and  _246
REMARK  107  A    between atoms: _246  and  _247
REMARK  108  A    between atoms: _252  and  _254
REMARK  109  A    between atoms: _254  and  _255
REMARK  110  A    between atoms: _258  and  _260
REMARK  111  A    between atoms: _260  and  _261
REMARK  112  A    between atoms: _260  and  _263
REMARK  113  A    between atoms: _263  and  _264
REMARK  114  A    between atoms: _266  and  _268
REMARK  115  A    between atoms: _268  and  _269
REMARK  116  A    between atoms: _271  and  _273
REMARK  117  A    between atoms: _273  and  _274
REMARK  118  A    between atoms: _276  and  _278
REMARK  119  A    between atoms: _278  and  _279
REMARK  120  A    between atoms: _278  and  _281
REMARK  121  A    between atoms: _281  and  _282
REMARK  122  A    between atoms: _284  and  _286
REMARK  123  A    between atoms: _286  and  _287
REMARK  124  A    between atoms: _286  and  _289
REMARK  125  A    between atoms: _289  and  _290
REMARK  126  A    between atoms: _293  and  _295
REMARK  127  A    between atoms: _295  and  _296
REMARK  128  A    between atoms: _295  and  _298
REMARK  129  A    between atoms: _298  and  _299
REMARK  130  A    between atoms: _305  and  _307
REMARK  131  A    between atoms: _307  and  _308
REMARK  132  A    between atoms: _307  and  _310
REMARK  133  A    between atoms: _310  and  _311
REMARK  134  A    between atoms: _311  and  _312
REMARK  135  A    between atoms: _315  and  _317
REMARK  136  A    between atoms: _317  and  _318
REMARK  137  A    between atoms: _317  and  _320
REMARK  138  A    between atoms: _320  and  _321
REMARK  139  A    between atoms: _324  and  _326
REMARK  140  A    between atoms: _326  and  _327
REMARK  141  A    between atoms: _326  and  _329
REMARK  142  A    between atoms: _329  and  _330
REMARK                            x       y       z     vdW  Elec       q    Type
REMARK                         _______ _______ _______ _____ _____    ______ ____
ROOT
ATOM      1  O   HOH     1       7.439  -2.969  21.981  0.00  0.00    +0.000 OA
ENDROOT
TORSDOF 0
REMARK  Name = ../refined-set-2016/1f57/1f57_pocket.pdb
REMARK  142 active torsions:
REMARK  status: ('A' for Active; 'I' for Inactive)
REMARK    1  A    between atoms: _1  and  _3
REMARK    2  A    between atoms: _3  and  _4
REMARK    3  A    between atoms: _3  and  _6
REMARK    4  A    between atoms: _6  and  _7
REMARK    5  A    between atoms: _10  and  _12
REMARK    6  A    between atoms: _12  and  _13
REMARK    7  A    between atoms: _12  and  _15
REMARK    8  A    between atoms: _15  and  _16
REMARK    9  A    between atoms: _17  and  ZN_336
REMARK   10  A    between atoms: _21  and  _23
REMARK   11  A    between atoms: _23  and  _24
REMARK   12  A    between atoms: _23  and  _26
REMARK   13  A    between atoms: _26  and  _27
REMARK   14  A    between atoms: _27  and  _28
REMARK   15  A    between atoms: _28  and  _29
REMARK   16  A    between atoms: _38  and  _40
REMARK   17  A    between atoms: _40  and  _41
REMARK   18  A    between atoms: _40  and  _43
REMARK   19  A    between atoms: _43  and  _44
REMARK   20  A    between atoms: _44  and  _45
REMARK   21  A    between atoms: _45  and  _46
REMARK   22  A    between atoms: _46  and  ZN_336
REMARK   23  A    between atoms: _48  and  _50
REMARK   24  A    between atoms: _50  and  _51
REMARK   25  A    between atoms: _50  and  _53
REMARK   26  A    between atoms: _53  and  _54
REMARK   27  A    between atoms: _54  and  _55
REMARK   28  A    between atoms: _55  and  _56
REMARK   29  A    between atoms: _65  and  _67
REMARK   30  A    between atoms: _67  and  _68
REMARK   31  A    between atoms: _67  and  _70
REMARK   32  A    between atoms: _70  and  _71
REMARK   33  A    between atoms: _74  and  _76
REMARK   34  A    between atoms: _76  and  _77
REMARK   35  A    between atoms: _80  and  _82
REMARK   36  A    between atoms: _82  and  _83
REMARK   37  A    between atoms: _82  and  _85
REMARK   38  A    between atoms: _85  and  _86
REMARK   39  A    between atoms: _91  and  _93
REMARK   40  A    between atoms: _93  and  _94
REMARK   41  A    between atoms: _93  and  _96
REMARK   42  A    between atoms: _96  and  _97
REMARK   43  A    between atoms: _97  and  _98
REMARK   44  A    between atoms: _98  and  _99
REMARK   45  A    between atoms: _108  and  _110
REMARK   46  A    between atoms: _110  and  _111
REMARK   47  A    between atoms: _113  and  _115
REMARK   48  A    between atoms: _115  and  _116
REMARK   49  A    between atoms: _115  and  _118
REMARK   50  A    between atoms: _118  and  _119
REMARK   51  A    between atoms: _119  and  _120
REMARK   52  A    between atoms: _123  and  _125
REMARK   53  A    between atoms: _125  and  _126
REMARK   54  A    between atoms: _125  and  _128
REMARK   55  A    between atoms: _128  and  _129
REMARK   56  A    between atoms: _132  and  _134
REMARK   57  A    between atoms: _134  and  _135
REMARK   58  A    between atoms: _134  and  _137
REMARK   59  A    between atoms: _137  and  _138
REMARK   60  A    between atoms: _140  and  _142
REMARK   61  A    between atoms: _142  and  _143
REMARK   62  A    between atoms: _142  and  _145
REMARK   63  A    between atoms: _145  and  _146
REMARK   64  A    between atoms: _149  and  _151
REMARK   65  A    between atoms: _151  and  _152
REMARK   66  A    between atoms: _151  and  _154
REMARK   67  A    between atoms: _154  and  _155
REMARK   68  A    between atoms: _156  and  ZN_336
REMARK   69  A    between atoms: _160  and  _162
REMARK   70  A    between atoms: _162  and  _163
REMARK   71  A    between atoms: _162  and  _165
REMARK   72  A    between atoms: _165  and  _166
REMARK   73  A    between atoms: _168  and  _170
REMARK   74  A    between atoms: _170  and  _171
REMARK   75  A    between atoms: _170  and  _173
REMARK   76  A    between atoms: _173  and  _174
REMARK   77  A    between atoms: _179  and  _180
REMARK   78  A    between atoms: _182  and  _184
REMARK   79  A    between atoms: _184  and  _185
REMARK   80  A    between atoms: _184  and  _187
REMARK   81  A    between atoms: _187  and  _188
REMARK   82  A    between atoms: _190  and  _192
REMARK   83  A    between atoms: _192  and  _193
REMARK   84  A    between atoms: _192  and  _195
REMARK   85  A    between atoms: _195  and  _196
REMARK   86  A    between atoms: _199  and  _201
REMARK   87  A    between atoms: _201  and  _202
REMARK   88  A    between atoms: _201  and  _204
REMARK   89  A    between atoms: _204  and  _205
REMARK   90  A    between atoms: _208  and  _210
REMARK   91  A    between atoms: _210  and  _211
REMARK   92  A    between atoms: _210  and  _213
REMARK   93  A    between atoms: _213  and  _214
REMARK   94  A    between atoms: _217  and  _219
REMARK   95  A    between atoms: _219  and  _220
REMARK   96  A    between atoms: _219  and  _222
REMARK   97  A    between atoms: _222  and  _223
REMARK   98  A    between atoms: _226  and  _228
REMARK   99  A    between atoms: _228  and  _229
REMARK  100  A    between atoms: _228  and  _231
REMARK  101  A    between atoms: _231  and  _232
REMARK  102  A    between atoms: _237  and  _238
REMARK  103  A    between atoms: _240  and  _242
REMARK  104  A    between atoms: _242  and  _243
REMARK  105  A    between atoms: _242  and  _245
REMARK  106  A    between atoms: _245  and  _246
REMARK  107  A    between atoms: _246  and  _247
REMARK  108  A    between atoms: _252  and  _254
REMARK  109  A    between atoms: _254  and  _255
REMARK  110  A    between atoms: _258  and  _260
REMARK  111  A    between atoms: _260  and  _261
REMARK  112  A    between atoms: _260  and  _263
REMARK  113  A    between atoms: _263  and  _264
REMARK  114  A    between atoms: _266  and  _268
REMARK  115  A    between atoms: _268  and  _269
REMARK  116  A    between atoms: _271  and  _273
REMARK  117  A    between atoms: _273  and  _274
REMARK  118  A    between atoms: _276  and  _278
REMARK  119  A    between atoms: _278  and  _279
REMARK  120  A    between atoms: _278  and  _281
REMARK  121  A    between atoms: _281  and  _282
REMARK  122  A    between atoms: _284  and  _286
REMARK  123  A    between atoms: _286  and  _287
REMARK  124  A    between atoms: _286  and  _289
REMARK  125  A    between atoms: _289  and  _290
REMARK  126  A    between atoms: _293  and  _295
REMARK  127  A    between atoms: _295  and  _296
REMARK  128  A    between atoms: _295  and  _298
REMARK  129  A    between atoms: _298  and  _299
REMARK  130  A    between atoms: _305  and  _307
REMARK  131  A    between atoms: _307  and  _308
REMARK  132  A    between atoms: _307  and  _310
REMARK  133  A    between atoms: _310  and  _311
REMARK  134  A    between atoms: _311  and  _312
REMARK  135  A    between atoms: _315  and  _317
REMARK  136  A    between atoms: _317  and  _318
REMARK  137  A    between atoms: _317  and  _320
REMARK  138  A    between atoms: _320  and  _321
REMARK  139  A    between atoms: _324  and  _326
REMARK  140  A    between atoms: _326  and  _327
REMARK  141  A    between atoms: _326  and  _329
REMARK  142  A    between atoms: _329  and  _330
REMARK                            x       y       z     vdW  Elec       q    Type
REMARK                         _______ _______ _______ _____ _____    ______ ____
ROOT
ATOM      1  O   HOH     1       4.910  -5.894  21.302  0.00  0.00    +0.000 OA
ENDROOT
TORSDOF 0
REMARK  Name = ../refined-set-2016/1f57/1f57_pocket.pdb
REMARK  142 active torsions:
REMARK  status: ('A' for Active; 'I' for Inactive)
REMARK    1  A    between atoms: _1  and  _3
REMARK    2  A    between atoms: _3  and  _4
REMARK    3  A    between atoms: _3  and  _6
REMARK    4  A    between atoms: _6  and  _7
REMARK    5  A    between atoms: _10  and  _12
REMARK    6  A    between atoms: _12  and  _13
REMARK    7  A    between atoms: _12  and  _15
REMARK    8  A    between atoms: _15  and  _16
REMARK    9  A    between atoms: _17  and  ZN_336
REMARK   10  A    between atoms: _21  and  _23
REMARK   11  A    between atoms: _23  and  _24
REMARK   12  A    between atoms: _23  and  _26
REMARK   13  A    between atoms: _26  and  _27
REMARK   14  A    between atoms: _27  and  _28
REMARK   15  A    between atoms: _28  and  _29
REMARK   16  A    between atoms: _38  and  _40
REMARK   17  A    between atoms: _40  and  _41
REMARK   18  A    between atoms: _40  and  _43
REMARK   19  A    between atoms: _43  and  _44
REMARK   20  A    between atoms: _44  and  _45
REMARK   21  A    between atoms: _45  and  _46
REMARK   22  A    between atoms: _46  and  ZN_336
REMARK   23  A    between atoms: _48  and  _50
REMARK   24  A    between atoms: _50  and  _51
REMARK   25  A    between atoms: _50  and  _53
REMARK   26  A    between atoms: _53  and  _54
REMARK   27  A    between atoms: _54  and  _55
REMARK   28  A    between atoms: _55  and  _56
REMARK   29  A    between atoms: _65  and  _67
REMARK   30  A    between atoms: _67  and  _68
REMARK   31  A    between atoms: _67  and  _70
REMARK   32  A    between atoms: _70  and  _71
REMARK   33  A    between atoms: _74  and  _76
REMARK   34  A    between atoms: _76  and  _77
REMARK   35  A    between atoms: _80  and  _82
REMARK   36  A    between atoms: _82  and  _83
REMARK   37  A    between atoms: _82  and  _85
REMARK   38  A    between atoms: _85  and  _86
REMARK   39  A    between atoms: _91  and  _93
REMARK   40  A    between atoms: _93  and  _94
REMARK   41  A    between atoms: _93  and  _96
REMARK   42  A    between atoms: _96  and  _97
REMARK   43  A    between atoms: _97  and  _98
REMARK   44  A    between atoms: _98  and  _99
REMARK   45  A    between atoms: _108  and  _110
REMARK   46  A    between atoms: _110  and  _111
REMARK   47  A    between atoms: _113  and  _115
REMARK   48  A    between atoms: _115  and  _116
REMARK   49  A    between atoms: _115  and  _118
REMARK   50  A    between atoms: _118  and  _119
REMARK   51  A    between atoms: _119  and  _120
REMARK   52  A    between atoms: _123  and  _125
REMARK   53  A    between atoms: _125  and  _126
REMARK   54  A    between atoms: _125  and  _128
REMARK   55  A    between atoms: _128  and  _129
REMARK   56  A    between atoms: _132  and  _134
REMARK   57  A    between atoms: _134  and  _135
REMARK   58  A    between atoms: _134  and  _137
REMARK   59  A    between atoms: _137  and  _138
REMARK   60  A    between atoms: _140  and  _142
REMARK   61  A    between atoms: _142  and  _143
REMARK   62  A    between atoms: _142  and  _145
REMARK   63  A    between atoms: _145  and  _146
REMARK   64  A    between atoms: _149  and  _151
REMARK   65  A    between atoms: _151  and  _152
REMARK   66  A    between atoms: _151  and  _154
REMARK   67  A    between atoms: _154  and  _155
REMARK   68  A    between atoms: _156  and  ZN_336
REMARK   69  A    between atoms: _160  and  _162
REMARK   70  A    between atoms: _162  and  _163
REMARK   71  A    between atoms: _162  and  _165
REMARK   72  A    between atoms: _165  and  _166
REMARK   73  A    between atoms: _168  and  _170
REMARK   74  A    between atoms: _170  and  _171
REMARK   75  A    between atoms: _170  and  _173
REMARK   76  A    between atoms: _173  and  _174
REMARK   77  A    between atoms: _179  and  _180
REMARK   78  A    between atoms: _182  and  _184
REMARK   79  A    between atoms: _184  and  _185
REMARK   80  A    between atoms: _184  and  _187
REMARK   81  A    between atoms: _187  and  _188
REMARK   82  A    between atoms: _190  and  _192
REMARK   83  A    between atoms: _192  and  _193
REMARK   84  A    between atoms: _192  and  _195
REMARK   85  A    between atoms: _195  and  _196
REMARK   86  A    between atoms: _199  and  _201
REMARK   87  A    between atoms: _201  and  _202
REMARK   88  A    between atoms: _201  and  _204
REMARK   89  A    between atoms: _204  and  _205
REMARK   90  A    between atoms: _208  and  _210
REMARK   91  A    between atoms: _210  and  _211
REMARK   92  A    between atoms: _210  and  _213
REMARK   93  A    between atoms: _213  and  _214
REMARK   94  A    between atoms: _217  and  _219
REMARK   95  A    between atoms: _219  and  _220
REMARK   96  A    between atoms: _219  and  _222
REMARK   97  A    between atoms: _222  and  _223
REMARK   98  A    between atoms: _226  and  _228
REMARK   99  A    between atoms: _228  and  _229
REMARK  100  A    between atoms: _228  and  _231
REMARK  101  A    between atoms: _231  and  _232
REMARK  102  A    between atoms: _237  and  _238
REMARK  103  A    between atoms: _240  and  _242
REMARK  104  A    between atoms: _242  and  _243
REMARK  105  A    between atoms: _242  and  _245
REMARK  106  A    between atoms: _245  and  _246
REMARK  107  A    between atoms: _246  and  _247
REMARK  108  A    between atoms: _252  and  _254
REMARK  109  A    between atoms: _254  and  _255
REMARK  110  A    between atoms: _258  and  _260
REMARK  111  A    between atoms: _260  and  _261
REMARK  112  A    between atoms: _260  and  _263
REMARK  113  A    between atoms: _263  and  _264
REMARK  114  A    between atoms: _266  and  _268
REMARK  115  A    between atoms: _268  and  _269
REMARK  116  A    between atoms: _271  and  _273
REMARK  117  A    between atoms: _273  and  _274
REMARK  118  A    between atoms: _276  and  _278
REMARK  119  A    between atoms: _278  and  _279
REMARK  120  A    between atoms: _278  and  _281
REMARK  121  A    between atoms: _281  and  _282
REMARK  122  A    between atoms: _284  and  _286
REMARK  123  A    between atoms: _286  and  _287
REMARK  124  A    between atoms: _286  and  _289
REMARK  125  A    between atoms: _289  and  _290
REMARK  126  A    between atoms: _293  and  _295
REMARK  127  A    between atoms: _295  and  _296
REMARK  128  A    between atoms: _295  and  _298
REMARK  129  A    between atoms: _298  and  _299
REMARK  130  A    between atoms: _305  and  _307
REMARK  131  A    between atoms: _307  and  _308
REMARK  132  A    between atoms: _307  and  _310
REMARK  133  A    between atoms: _310  and  _311
REMARK  134  A    between atoms: _311  and  _312
REMARK  135  A    between atoms: _315  and  _317
REMARK  136  A    between atoms: _317  and  _318
REMARK  137  A    between atoms: _317  and  _320
REMARK  138  A    between atoms: _320  and  _321
REMARK  139  A    between atoms: _324  and  _326
REMARK  140  A    between atoms: _326  and  _327
REMARK  141  A    between atoms: _326  and  _329
REMARK  142  A    between atoms: _329  and  _330
REMARK                            x       y       z     vdW  Elec       q    Type
REMARK                         _______ _______ _______ _____ _____    ______ ____
ROOT
ATOM      1  O   HOH     1      16.200 -12.297  22.525  0.00  0.00    +0.000 OA
ENDROOT
TORSDOF 0
REMARK  Name = ../refined-set-2016/1f57/1f57_pocket.pdb
REMARK  142 active torsions:
REMARK  status: ('A' for Active; 'I' for Inactive)
REMARK    1  A    between atoms: _1  and  _3
REMARK    2  A    between atoms: _3  and  _4
REMARK    3  A    between atoms: _3  and  _6
REMARK    4  A    between atoms: _6  and  _7
REMARK    5  A    between atoms: _10  and  _12
REMARK    6  A    between atoms: _12  and  _13
REMARK    7  A    between atoms: _12  and  _15
REMARK    8  A    between atoms: _15  and  _16
REMARK    9  A    between atoms: _17  and  ZN_336
REMARK   10  A    between atoms: _21  and  _23
REMARK   11  A    between atoms: _23  and  _24
REMARK   12  A    between atoms: _23  and  _26
REMARK   13  A    between atoms: _26  and  _27
REMARK   14  A    between atoms: _27  and  _28
REMARK   15  A    between atoms: _28  and  _29
REMARK   16  A    between atoms: _38  and  _40
REMARK   17  A    between atoms: _40  and  _41
REMARK   18  A    between atoms: _40  and  _43
REMARK   19  A    between atoms: _43  and  _44
REMARK   20  A    between atoms: _44  and  _45
REMARK   21  A    between atoms: _45  and  _46
REMARK   22  A    between atoms: _46  and  ZN_336
REMARK   23  A    between atoms: _48  and  _50
REMARK   24  A    between atoms: _50  and  _51
REMARK   25  A    between atoms: _50  and  _53
REMARK   26  A    between atoms: _53  and  _54
REMARK   27  A    between atoms: _54  and  _55
REMARK   28  A    between atoms: _55  and  _56
REMARK   29  A    between atoms: _65  and  _67
REMARK   30  A    between atoms: _67  and  _68
REMARK   31  A    between atoms: _67  and  _70
REMARK   32  A    between atoms: _70  and  _71
REMARK   33  A    between atoms: _74  and  _76
REMARK   34  A    between atoms: _76  and  _77
REMARK   35  A    between atoms: _80  and  _82
REMARK   36  A    between atoms: _82  and  _83
REMARK   37  A    between atoms: _82  and  _85
REMARK   38  A    between atoms: _85  and  _86
REMARK   39  A    between atoms: _91  and  _93
REMARK   40  A    between atoms: _93  and  _94
REMARK   41  A    between atoms: _93  and  _96
REMARK   42  A    between atoms: _96  and  _97
REMARK   43  A    between atoms: _97  and  _98
REMARK   44  A    between atoms: _98  and  _99
REMARK   45  A    between atoms: _108  and  _110
REMARK   46  A    between atoms: _110  and  _111
REMARK   47  A    between atoms: _113  and  _115
REMARK   48  A    between atoms: _115  and  _116
REMARK   49  A    between atoms: _115  and  _118
REMARK   50  A    between atoms: _118  and  _119
REMARK   51  A    between atoms: _119  and  _120
REMARK   52  A    between atoms: _123  and  _125
REMARK   53  A    between atoms: _125  and  _126
REMARK   54  A    between atoms: _125  and  _128
REMARK   55  A    between atoms: _128  and  _129
REMARK   56  A    between atoms: _132  and  _134
REMARK   57  A    between atoms: _134  and  _135
REMARK   58  A    between atoms: _134  and  _137
REMARK   59  A    between atoms: _137  and  _138
REMARK   60  A    between atoms: _140  and  _142
REMARK   61  A    between atoms: _142  and  _143
REMARK   62  A    between atoms: _142  and  _145
REMARK   63  A    between atoms: _145  and  _146
REMARK   64  A    between atoms: _149  and  _151
REMARK   65  A    between atoms: _151  and  _152
REMARK   66  A    between atoms: _151  and  _154
REMARK   67  A    between atoms: _154  and  _155
REMARK   68  A    between atoms: _156  and  ZN_336
REMARK   69  A    between atoms: _160  and  _162
REMARK   70  A    between atoms: _162  and  _163
REMARK   71  A    between atoms: _162  and  _165
REMARK   72  A    between atoms: _165  and  _166
REMARK   73  A    between atoms: _168  and  _170
REMARK   74  A    between atoms: _170  and  _171
REMARK   75  A    between atoms: _170  and  _173
REMARK   76  A    between atoms: _173  and  _174
REMARK   77  A    between atoms: _179  and  _180
REMARK   78  A    between atoms: _182  and  _184
REMARK   79  A    between atoms: _184  and  _185
REMARK   80  A    between atoms: _184  and  _187
REMARK   81  A    between atoms: _187  and  _188
REMARK   82  A    between atoms: _190  and  _192
REMARK   83  A    between atoms: _192  and  _193
REMARK   84  A    between atoms: _192  and  _195
REMARK   85  A    between atoms: _195  and  _196
REMARK   86  A    between atoms: _199  and  _201
REMARK   87  A    between atoms: _201  and  _202
REMARK   88  A    between atoms: _201  and  _204
REMARK   89  A    between atoms: _204  and  _205
REMARK   90  A    between atoms: _208  and  _210
REMARK   91  A    between atoms: _210  and  _211
REMARK   92  A    between atoms: _210  and  _213
REMARK   93  A    between atoms: _213  and  _214
REMARK   94  A    between atoms: _217  and  _219
REMARK   95  A    between atoms: _219  and  _220
REMARK   96  A    between atoms: _219  and  _222
REMARK   97  A    between atoms: _222  and  _223
REMARK   98  A    between atoms: _226  and  _228
REMARK   99  A    between atoms: _228  and  _229
REMARK  100  A    between atoms: _228  and  _231
REMARK  101  A    between atoms: _231  and  _232
REMARK  102  A    between atoms: _237  and  _238
REMARK  103  A    between atoms: _240  and  _242
REMARK  104  A    between atoms: _242  and  _243
REMARK  105  A    between atoms: _242  and  _245
REMARK  106  A    between atoms: _245  and  _246
REMARK  107  A    between atoms: _246  and  _247
REMARK  108  A    between atoms: _252  and  _254
REMARK  109  A    between atoms: _254  and  _255
REMARK  110  A    between atoms: _258  and  _260
REMARK  111  A    between atoms: _260  and  _261
REMARK  112  A    between atoms: _260  and  _263
REMARK  113  A    between atoms: _263  and  _264
REMARK  114  A    between atoms: _266  and  _268
REMARK  115  A    between atoms: _268  and  _269
REMARK  116  A    between atoms: _271  and  _273
REMARK  117  A    between atoms: _273  and  _274
REMARK  118  A    between atoms: _276  and  _278
REMARK  119  A    between atoms: _278  and  _279
REMARK  120  A    between atoms: _278  and  _281
REMARK  121  A    between atoms: _281  and  _282
REMARK  122  A    between atoms: _284  and  _286
REMARK  123  A    between atoms: _286  and  _287
REMARK  124  A    between atoms: _286  and  _289
REMARK  125  A    between atoms: _289  and  _290
REMARK  126  A    between atoms: _293  and  _295
REMARK  127  A    between atoms: _295  and  _296
REMARK  128  A    between atoms: _295  and  _298
REMARK  129  A    between atoms: _298  and  _299
REMARK  130  A    between atoms: _305  and  _307
REMARK  131  A    between atoms: _307  and  _308
REMARK  132  A    between atoms: _307  and  _310
REMARK  133  A    between atoms: _310  and  _311
REMARK  134  A    between atoms: _311  and  _312
REMARK  135  A    between atoms: _315  and  _317
REMARK  136  A    between atoms: _317  and  _318
REMARK  137  A    between atoms: _317  and  _320
REMARK  138  A    between atoms: _320  and  _321
REMARK  139  A    between atoms: _324  and  _326
REMARK  140  A    between atoms: _326  and  _327
REMARK  141  A    between atoms: _326  and  _329
REMARK  142  A    between atoms: _329  and  _330
REMARK                            x       y       z     vdW  Elec       q    Type
REMARK                         _______ _______ _______ _____ _____    ______ ____
ROOT
ATOM      1  O   HOH     1      11.952 -13.679  21.700  0.00  0.00    +0.000 OA
ENDROOT
TORSDOF 0
REMARK  Name = ../refined-set-2016/1f57/1f57_pocket.pdb
REMARK  142 active torsions:
REMARK  status: ('A' for Active; 'I' for Inactive)
REMARK    1  A    between atoms: _1  and  _3
REMARK    2  A    between atoms: _3  and  _4
REMARK    3  A    between atoms: _3  and  _6
REMARK    4  A    between atoms: _6  and  _7
REMARK    5  A    between atoms: _10  and  _12
REMARK    6  A    between atoms: _12  and  _13
REMARK    7  A    between atoms: _12  and  _15
REMARK    8  A    between atoms: _15  and  _16
REMARK    9  A    between atoms: _17  and  ZN_336
REMARK   10  A    between atoms: _21  and  _23
REMARK   11  A    between atoms: _23  and  _24
REMARK   12  A    between atoms: _23  and  _26
REMARK   13  A    between atoms: _26  and  _27
REMARK   14  A    between atoms: _27  and  _28
REMARK   15  A    between atoms: _28  and  _29
REMARK   16  A    between atoms: _38  and  _40
REMARK   17  A    between atoms: _40  and  _41
REMARK   18  A    between atoms: _40  and  _43
REMARK   19  A    between atoms: _43  and  _44
REMARK   20  A    between atoms: _44  and  _45
REMARK   21  A    between atoms: _45  and  _46
REMARK   22  A    between atoms: _46  and  ZN_336
REMARK   23  A    between atoms: _48  and  _50
REMARK   24  A    between atoms: _50  and  _51
REMARK   25  A    between atoms: _50  and  _53
REMARK   26  A    between atoms: _53  and  _54
REMARK   27  A    between atoms: _54  and  _55
REMARK   28  A    between atoms: _55  and  _56
REMARK   29  A    between atoms: _65  and  _67
REMARK   30  A    between atoms: _67  and  _68
REMARK   31  A    between atoms: _67  and  _70
REMARK   32  A    between atoms: _70  and  _71
REMARK   33  A    between atoms: _74  and  _76
REMARK   34  A    between atoms: _76  and  _77
REMARK   35  A    between atoms: _80  and  _82
REMARK   36  A    between atoms: _82  and  _83
REMARK   37  A    between atoms: _82  and  _85
REMARK   38  A    between atoms: _85  and  _86
REMARK   39  A    between atoms: _91  and  _93
REMARK   40  A    between atoms: _93  and  _94
REMARK   41  A    between atoms: _93  and  _96
REMARK   42  A    between atoms: _96  and  _97
REMARK   43  A    between atoms: _97  and  _98
REMARK   44  A    between atoms: _98  and  _99
REMARK   45  A    between atoms: _108  and  _110
REMARK   46  A    between atoms: _110  and  _111
REMARK   47  A    between atoms: _113  and  _115
REMARK   48  A    between atoms: _115  and  _116
REMARK   49  A    between atoms: _115  and  _118
REMARK   50  A    between atoms: _118  and  _119
REMARK   51  A    between atoms: _119  and  _120
REMARK   52  A    between atoms: _123  and  _125
REMARK   53  A    between atoms: _125  and  _126
REMARK   54  A    between atoms: _125  and  _128
REMARK   55  A    between atoms: _128  and  _129
REMARK   56  A    between atoms: _132  and  _134
REMARK   57  A    between atoms: _134  and  _135
REMARK   58  A    between atoms: _134  and  _137
REMARK   59  A    between atoms: _137  and  _138
REMARK   60  A    between atoms: _140  and  _142
REMARK   61  A    between atoms: _142  and  _143
REMARK   62  A    between atoms: _142  and  _145
REMARK   63  A    between atoms: _145  and  _146
REMARK   64  A    between atoms: _149  and  _151
REMARK   65  A    between atoms: _151  and  _152
REMARK   66  A    between atoms: _151  and  _154
REMARK   67  A    between atoms: _154  and  _155
REMARK   68  A    between atoms: _156  and  ZN_336
REMARK   69  A    between atoms: _160  and  _162
REMARK   70  A    between atoms: _162  and  _163
REMARK   71  A    between atoms: _162  and  _165
REMARK   72  A    between atoms: _165  and  _166
REMARK   73  A    between atoms: _168  and  _170
REMARK   74  A    between atoms: _170  and  _171
REMARK   75  A    between atoms: _170  and  _173
REMARK   76  A    between atoms: _173  and  _174
REMARK   77  A    between atoms: _179  and  _180
REMARK   78  A    between atoms: _182  and  _184
REMARK   79  A    between atoms: _184  and  _185
REMARK   80  A    between atoms: _184  and  _187
REMARK   81  A    between atoms: _187  and  _188
REMARK   82  A    between atoms: _190  and  _192
REMARK   83  A    between atoms: _192  and  _193
REMARK   84  A    between atoms: _192  and  _195
REMARK   85  A    between atoms: _195  and  _196
REMARK   86  A    between atoms: _199  and  _201
REMARK   87  A    between atoms: _201  and  _202
REMARK   88  A    between atoms: _201  and  _204
REMARK   89  A    between atoms: _204  and  _205
REMARK   90  A    between atoms: _208  and  _210
REMARK   91  A    between atoms: _210  and  _211
REMARK   92  A    between atoms: _210  and  _213
REMARK   93  A    between atoms: _213  and  _214
REMARK   94  A    between atoms: _217  and  _219
REMARK   95  A    between atoms: _219  and  _220
REMARK   96  A    between atoms: _219  and  _222
REMARK   97  A    between atoms: _222  and  _223
REMARK   98  A    between atoms: _226  and  _228
REMARK   99  A    between atoms: _228  and  _229
REMARK  100  A    between atoms: _228  and  _231
REMARK  101  A    between atoms: _231  and  _232
REMARK  102  A    between atoms: _237  and  _238
REMARK  103  A    between atoms: _240  and  _242
REMARK  104  A    between atoms: _242  and  _243
REMARK  105  A    between atoms: _242  and  _245
REMARK  106  A    between atoms: _245  and  _246
REMARK  107  A    between atoms: _246  and  _247
REMARK  108  A    between atoms: _252  and  _254
REMARK  109  A    between atoms: _254  and  _255
REMARK  110  A    between atoms: _258  and  _260
REMARK  111  A    between atoms: _260  and  _261
REMARK  112  A    between atoms: _260  and  _263
REMARK  113  A    between atoms: _263  and  _264
REMARK  114  A    between atoms: _266  and  _268
REMARK  115  A    between atoms: _268  and  _269
REMARK  116  A    between atoms: _271  and  _273
REMARK  117  A    between atoms: _273  and  _274
REMARK  118  A    between atoms: _276  and  _278
REMARK  119  A    between atoms: _278  and  _279
REMARK  120  A    between atoms: _278  and  _281
REMARK  121  A    between atoms: _281  and  _282
REMARK  122  A    between atoms: _284  and  _286
REMARK  123  A    between atoms: _286  and  _287
REMARK  124  A    between atoms: _286  and  _289
REMARK  125  A    between atoms: _289  and  _290
REMARK  126  A    between atoms: _293  and  _295
REMARK  127  A    between atoms: _295  and  _296
REMARK  128  A    between atoms: _295  and  _298
REMARK  129  A    between atoms: _298  and  _299
REMARK  130  A    between atoms: _305  and  _307
REMARK  131  A    between atoms: _307  and  _308
REMARK  132  A    between atoms: _307  and  _310
REMARK  133  A    between atoms: _310  and  _311
REMARK  134  A    between atoms: _311  and  _312
REMARK  135  A    between atoms: _315  and  _317
REMARK  136  A    between atoms: _317  and  _318
REMARK  137  A    between atoms: _317  and  _320
REMARK  138  A    between atoms: _320  and  _321
REMARK  139  A    between atoms: _324  and  _326
REMARK  140  A    between atoms: _326  and  _327
REMARK  141  A    between atoms: _326  and  _329
REMARK  142  A    between atoms: _329  and  _330
REMARK                            x       y       z     vdW  Elec       q    Type
REMARK                         _______ _______ _______ _____ _____    ______ ____
ROOT
ATOM      1  O   HOH     1      13.033 -16.678  21.197  0.00  0.00    +0.000 OA
ENDROOT
TORSDOF 0
REMARK  Name = ../refined-set-2016/1f57/1f57_pocket.pdb
REMARK  142 active torsions:
REMARK  status: ('A' for Active; 'I' for Inactive)
REMARK    1  A    between atoms: _1  and  _3
REMARK    2  A    between atoms: _3  and  _4
REMARK    3  A    between atoms: _3  and  _6
REMARK    4  A    between atoms: _6  and  _7
REMARK    5  A    between atoms: _10  and  _12
REMARK    6  A    between atoms: _12  and  _13
REMARK    7  A    between atoms: _12  and  _15
REMARK    8  A    between atoms: _15  and  _16
REMARK    9  A    between atoms: _17  and  ZN_336
REMARK   10  A    between atoms: _21  and  _23
REMARK   11  A    between atoms: _23  and  _24
REMARK   12  A    between atoms: _23  and  _26
REMARK   13  A    between atoms: _26  and  _27
REMARK   14  A    between atoms: _27  and  _28
REMARK   15  A    between atoms: _28  and  _29
REMARK   16  A    between atoms: _38  and  _40
REMARK   17  A    between atoms: _40  and  _41
REMARK   18  A    between atoms: _40  and  _43
REMARK   19  A    between atoms: _43  and  _44
REMARK   20  A    between atoms: _44  and  _45
REMARK   21  A    between atoms: _45  and  _46
REMARK   22  A    between atoms: _46  and  ZN_336
REMARK   23  A    between atoms: _48  and  _50
REMARK   24  A    between atoms: _50  and  _51
REMARK   25  A    between atoms: _50  and  _53
REMARK   26  A    between atoms: _53  and  _54
REMARK   27  A    between atoms: _54  and  _55
REMARK   28  A    between atoms: _55  and  _56
REMARK   29  A    between atoms: _65  and  _67
REMARK   30  A    between atoms: _67  and  _68
REMARK   31  A    between atoms: _67  and  _70
REMARK   32  A    between atoms: _70  and  _71
REMARK   33  A    between atoms: _74  and  _76
REMARK   34  A    between atoms: _76  and  _77
REMARK   35  A    between atoms: _80  and  _82
REMARK   36  A    between atoms: _82  and  _83
REMARK   37  A    between atoms: _82  and  _85
REMARK   38  A    between atoms: _85  and  _86
REMARK   39  A    between atoms: _91  and  _93
REMARK   40  A    between atoms: _93  and  _94
REMARK   41  A    between atoms: _93  and  _96
REMARK   42  A    between atoms: _96  and  _97
REMARK   43  A    between atoms: _97  and  _98
REMARK   44  A    between atoms: _98  and  _99
REMARK   45  A    between atoms: _108  and  _110
REMARK   46  A    between atoms: _110  and  _111
REMARK   47  A    between atoms: _113  and  _115
REMARK   48  A    between atoms: _115  and  _116
REMARK   49  A    between atoms: _115  and  _118
REMARK   50  A    between atoms: _118  and  _119
REMARK   51  A    between atoms: _119  and  _120
REMARK   52  A    between atoms: _123  and  _125
REMARK   53  A    between atoms: _125  and  _126
REMARK   54  A    between atoms: _125  and  _128
REMARK   55  A    between atoms: _128  and  _129
REMARK   56  A    between atoms: _132  and  _134
REMARK   57  A    between atoms: _134  and  _135
REMARK   58  A    between atoms: _134  and  _137
REMARK   59  A    between atoms: _137  and  _138
REMARK   60  A    between atoms: _140  and  _142
REMARK   61  A    between atoms: _142  and  _143
REMARK   62  A    between atoms: _142  and  _145
REMARK   63  A    between atoms: _145  and  _146
REMARK   64  A    between atoms: _149  and  _151
REMARK   65  A    between atoms: _151  and  _152
REMARK   66  A    between atoms: _151  and  _154
REMARK   67  A    between atoms: _154  and  _155
REMARK   68  A    between atoms: _156  and  ZN_336
REMARK   69  A    between atoms: _160  and  _162
REMARK   70  A    between atoms: _162  and  _163
REMARK   71  A    between atoms: _162  and  _165
REMARK   72  A    between atoms: _165  and  _166
REMARK   73  A    between atoms: _168  and  _170
REMARK   74  A    between atoms: _170  and  _171
REMARK   75  A    between atoms: _170  and  _173
REMARK   76  A    between atoms: _173  and  _174
REMARK   77  A    between atoms: _179  and  _180
REMARK   78  A    between atoms: _182  and  _184
REMARK   79  A    between atoms: _184  and  _185
REMARK   80  A    between atoms: _184  and  _187
REMARK   81  A    between atoms: _187  and  _188
REMARK   82  A    between atoms: _190  and  _192
REMARK   83  A    between atoms: _192  and  _193
REMARK   84  A    between atoms: _192  and  _195
REMARK   85  A    between atoms: _195  and  _196
REMARK   86  A    between atoms: _199  and  _201
REMARK   87  A    between atoms: _201  and  _202
REMARK   88  A    between atoms: _201  and  _204
REMARK   89  A    between atoms: _204  and  _205
REMARK   90  A    between atoms: _208  and  _210
REMARK   91  A    between atoms: _210  and  _211
REMARK   92  A    between atoms: _210  and  _213
REMARK   93  A    between atoms: _213  and  _214
REMARK   94  A    between atoms: _217  and  _219
REMARK   95  A    between atoms: _219  and  _220
REMARK   96  A    between atoms: _219  and  _222
REMARK   97  A    between atoms: _222  and  _223
REMARK   98  A    between atoms: _226  and  _228
REMARK   99  A    between atoms: _228  and  _229
REMARK  100  A    between atoms: _228  and  _231
REMARK  101  A    between atoms: _231  and  _232
REMARK  102  A    between atoms: _237  and  _238
REMARK  103  A    between atoms: _240  and  _242
REMARK  104  A    between atoms: _242  and  _243
REMARK  105  A    between atoms: _242  and  _245
REMARK  106  A    between atoms: _245  and  _246
REMARK  107  A    between atoms: _246  and  _247
REMARK  108  A    between atoms: _252  and  _254
REMARK  109  A    between atoms: _254  and  _255
REMARK  110  A    between atoms: _258  and  _260
REMARK  111  A    between atoms: _260  and  _261
REMARK  112  A    between atoms: _260  and  _263
REMARK  113  A    between atoms: _263  and  _264
REMARK  114  A    between atoms: _266  and  _268
REMARK  115  A    between atoms: _268  and  _269
REMARK  116  A    between atoms: _271  and  _273
REMARK  117  A    between atoms: _273  and  _274
REMARK  118  A    between atoms: _276  and  _278
REMARK  119  A    between atoms: _278  and  _279
REMARK  120  A    between atoms: _278  and  _281
REMARK  121  A    between atoms: _281  and  _282
REMARK  122  A    between atoms: _284  and  _286
REMARK  123  A    between atoms: _286  and  _287
REMARK  124  A    between atoms: _286  and  _289
REMARK  125  A    between atoms: _289  and  _290
REMARK  126  A    between atoms: _293  and  _295
REMARK  127  A    between atoms: _295  and  _296
REMARK  128  A    between atoms: _295  and  _298
REMARK  129  A    between atoms: _298  and  _299
REMARK  130  A    between atoms: _305  and  _307
REMARK  131  A    between atoms: _307  and  _308
REMARK  132  A    between atoms: _307  and  _310
REMARK  133  A    between atoms: _310  and  _311
REMARK  134  A    between atoms: _311  and  _312
REMARK  135  A    between atoms: _315  and  _317
REMARK  136  A    between atoms: _317  and  _318
REMARK  137  A    between atoms: _317  and  _320
REMARK  138  A    between atoms: _320  and  _321
REMARK  139  A    between atoms: _324  and  _326
REMARK  140  A    between atoms: _326  and  _327
REMARK  141  A    between atoms: _326  and  _329
REMARK  142  A    between atoms: _329  and  _330
REMARK                            x       y       z     vdW  Elec       q    Type
REMARK                         _______ _______ _______ _____ _____    ______ ____
ROOT
ATOM      1  O   HOH     1       7.899 -12.479  32.668  0.00  0.00    +0.000 OA
ENDROOT
TORSDOF 0
REMARK  Name = ../refined-set-2016/1f57/1f57_pocket.pdb
REMARK  142 active torsions:
REMARK  status: ('A' for Active; 'I' for Inactive)
REMARK    1  A    between atoms: _1  and  _3
REMARK    2  A    between atoms: _3  and  _4
REMARK    3  A    between atoms: _3  and  _6
REMARK    4  A    between atoms: _6  and  _7
REMARK    5  A    between atoms: _10  and  _12
REMARK    6  A    between atoms: _12  and  _13
REMARK    7  A    between atoms: _12  and  _15
REMARK    8  A    between atoms: _15  and  _16
REMARK    9  A    between atoms: _17  and  ZN_336
REMARK   10  A    between atoms: _21  and  _23
REMARK   11  A    between atoms: _23  and  _24
REMARK   12  A    between atoms: _23  and  _26
REMARK   13  A    between atoms: _26  and  _27
REMARK   14  A    between atoms: _27  and  _28
REMARK   15  A    between atoms: _28  and  _29
REMARK   16  A    between atoms: _38  and  _40
REMARK   17  A    between atoms: _40  and  _41
REMARK   18  A    between atoms: _40  and  _43
REMARK   19  A    between atoms: _43  and  _44
REMARK   20  A    between atoms: _44  and  _45
REMARK   21  A    between atoms: _45  and  _46
REMARK   22  A    between atoms: _46  and  ZN_336
REMARK   23  A    between atoms: _48  and  _50
REMARK   24  A    between atoms: _50  and  _51
REMARK   25  A    between atoms: _50  and  _53
REMARK   26  A    between atoms: _53  and  _54
REMARK   27  A    between atoms: _54  and  _55
REMARK   28  A    between atoms: _55  and  _56
REMARK   29  A    between atoms: _65  and  _67
REMARK   30  A    between atoms: _67  and  _68
REMARK   31  A    between atoms: _67  and  _70
REMARK   32  A    between atoms: _70  and  _71
REMARK   33  A    between atoms: _74  and  _76
REMARK   34  A    between atoms: _76  and  _77
REMARK   35  A    between atoms: _80  and  _82
REMARK   36  A    between atoms: _82  and  _83
REMARK   37  A    between atoms: _82  and  _85
REMARK   38  A    between atoms: _85  and  _86
REMARK   39  A    between atoms: _91  and  _93
REMARK   40  A    between atoms: _93  and  _94
REMARK   41  A    between atoms: _93  and  _96
REMARK   42  A    between atoms: _96  and  _97
REMARK   43  A    between atoms: _97  and  _98
REMARK   44  A    between atoms: _98  and  _99
REMARK   45  A    between atoms: _108  and  _110
REMARK   46  A    between atoms: _110  and  _111
REMARK   47  A    between atoms: _113  and  _115
REMARK   48  A    between atoms: _115  and  _116
REMARK   49  A    between atoms: _115  and  _118
REMARK   50  A    between atoms: _118  and  _119
REMARK   51  A    between atoms: _119  and  _120
REMARK   52  A    between atoms: _123  and  _125
REMARK   53  A    between atoms: _125  and  _126
REMARK   54  A    between atoms: _125  and  _128
REMARK   55  A    between atoms: _128  and  _129
REMARK   56  A    between atoms: _132  and  _134
REMARK   57  A    between atoms: _134  and  _135
REMARK   58  A    between atoms: _134  and  _137
REMARK   59  A    between atoms: _137  and  _138
REMARK   60  A    between atoms: _140  and  _142
REMARK   61  A    between atoms: _142  and  _143
REMARK   62  A    between atoms: _142  and  _145
REMARK   63  A    between atoms: _145  and  _146
REMARK   64  A    between atoms: _149  and  _151
REMARK   65  A    between atoms: _151  and  _152
REMARK   66  A    between atoms: _151  and  _154
REMARK   67  A    between atoms: _154  and  _155
REMARK   68  A    between atoms: _156  and  ZN_336
REMARK   69  A    between atoms: _160  and  _162
REMARK   70  A    between atoms: _162  and  _163
REMARK   71  A    between atoms: _162  and  _165
REMARK   72  A    between atoms: _165  and  _166
REMARK   73  A    between atoms: _168  and  _170
REMARK   74  A    between atoms: _170  and  _171
REMARK   75  A    between atoms: _170  and  _173
REMARK   76  A    between atoms: _173  and  _174
REMARK   77  A    between atoms: _179  and  _180
REMARK   78  A    between atoms: _182  and  _184
REMARK   79  A    between atoms: _184  and  _185
REMARK   80  A    between atoms: _184  and  _187
REMARK   81  A    between atoms: _187  and  _188
REMARK   82  A    between atoms: _190  and  _192
REMARK   83  A    between atoms: _192  and  _193
REMARK   84  A    between atoms: _192  and  _195
REMARK   85  A    between atoms: _195  and  _196
REMARK   86  A    between atoms: _199  and  _201
REMARK   87  A    between atoms: _201  and  _202
REMARK   88  A    between atoms: _201  and  _204
REMARK   89  A    between atoms: _204  and  _205
REMARK   90  A    between atoms: _208  and  _210
REMARK   91  A    between atoms: _210  and  _211
REMARK   92  A    between atoms: _210  and  _213
REMARK   93  A    between atoms: _213  and  _214
REMARK   94  A    between atoms: _217  and  _219
REMARK   95  A    between atoms: _219  and  _220
REMARK   96  A    between atoms: _219  and  _222
REMARK   97  A    between atoms: _222  and  _223
REMARK   98  A    between atoms: _226  and  _228
REMARK   99  A    between atoms: _228  and  _229
REMARK  100  A    between atoms: _228  and  _231
REMARK  101  A    between atoms: _231  and  _232
REMARK  102  A    between atoms: _237  and  _238
REMARK  103  A    between atoms: _240  and  _242
REMARK  104  A    between atoms: _242  and  _243
REMARK  105  A    between atoms: _242  and  _245
REMARK  106  A    between atoms: _245  and  _246
REMARK  107  A    between atoms: _246  and  _247
REMARK  108  A    between atoms: _252  and  _254
REMARK  109  A    between atoms: _254  and  _255
REMARK  110  A    between atoms: _258  and  _260
REMARK  111  A    between atoms: _260  and  _261
REMARK  112  A    between atoms: _260  and  _263
REMARK  113  A    between atoms: _263  and  _264
REMARK  114  A    between atoms: _266  and  _268
REMARK  115  A    between atoms: _268  and  _269
REMARK  116  A    between atoms: _271  and  _273
REMARK  117  A    between atoms: _273  and  _274
REMARK  118  A    between atoms: _276  and  _278
REMARK  119  A    between atoms: _278  and  _279
REMARK  120  A    between atoms: _278  and  _281
REMARK  121  A    between atoms: _281  and  _282
REMARK  122  A    between atoms: _284  and  _286
REMARK  123  A    between atoms: _286  and  _287
REMARK  124  A    between atoms: _286  and  _289
REMARK  125  A    between atoms: _289  and  _290
REMARK  126  A    between atoms: _293  and  _295
REMARK  127  A    between atoms: _295  and  _296
REMARK  128  A    between atoms: _295  and  _298
REMARK  129  A    between atoms: _298  and  _299
REMARK  130  A    between atoms: _305  and  _307
REMARK  131  A    between atoms: _307  and  _308
REMARK  132  A    between atoms: _307  and  _310
REMARK  133  A    between atoms: _310  and  _311
REMARK  134  A    between atoms: _311  and  _312
REMARK  135  A    between atoms: _315  and  _317
REMARK  136  A    between atoms: _317  and  _318
REMARK  137  A    between atoms: _317  and  _320
REMARK  138  A    between atoms: _320  and  _321
REMARK  139  A    between atoms: _324  and  _326
REMARK  140  A    between atoms: _326  and  _327
REMARK  141  A    between atoms: _326  and  _329
REMARK  142  A    between atoms: _329  and  _330
REMARK                            x       y       z     vdW  Elec       q    Type
REMARK                         _______ _______ _______ _____ _____    ______ ____
ROOT
ATOM      1  O   HOH     1      11.983 -16.101  23.690  0.00  0.00    +0.000 OA
ENDROOT
TORSDOF 0
REMARK  Name = ../refined-set-2016/1f57/1f57_pocket.pdb
REMARK  142 active torsions:
REMARK  status: ('A' for Active; 'I' for Inactive)
REMARK    1  A    between atoms: _1  and  _3
REMARK    2  A    between atoms: _3  and  _4
REMARK    3  A    between atoms: _3  and  _6
REMARK    4  A    between atoms: _6  and  _7
REMARK    5  A    between atoms: _10  and  _12
REMARK    6  A    between atoms: _12  and  _13
REMARK    7  A    between atoms: _12  and  _15
REMARK    8  A    between atoms: _15  and  _16
REMARK    9  A    between atoms: _17  and  ZN_336
REMARK   10  A    between atoms: _21  and  _23
REMARK   11  A    between atoms: _23  and  _24
REMARK   12  A    between atoms: _23  and  _26
REMARK   13  A    between atoms: _26  and  _27
REMARK   14  A    between atoms: _27  and  _28
REMARK   15  A    between atoms: _28  and  _29
REMARK   16  A    between atoms: _38  and  _40
REMARK   17  A    between atoms: _40  and  _41
REMARK   18  A    between atoms: _40  and  _43
REMARK   19  A    between atoms: _43  and  _44
REMARK   20  A    between atoms: _44  and  _45
REMARK   21  A    between atoms: _45  and  _46
REMARK   22  A    between atoms: _46  and  ZN_336
REMARK   23  A    between atoms: _48  and  _50
REMARK   24  A    between atoms: _50  and  _51
REMARK   25  A    between atoms: _50  and  _53
REMARK   26  A    between atoms: _53  and  _54
REMARK   27  A    between atoms: _54  and  _55
REMARK   28  A    between atoms: _55  and  _56
REMARK   29  A    between atoms: _65  and  _67
REMARK   30  A    between atoms: _67  and  _68
REMARK   31  A    between atoms: _67  and  _70
REMARK   32  A    between atoms: _70  and  _71
REMARK   33  A    between atoms: _74  and  _76
REMARK   34  A    between atoms: _76  and  _77
REMARK   35  A    between atoms: _80  and  _82
REMARK   36  A    between atoms: _82  and  _83
REMARK   37  A    between atoms: _82  and  _85
REMARK   38  A    between atoms: _85  and  _86
REMARK   39  A    between atoms: _91  and  _93
REMARK   40  A    between atoms: _93  and  _94
REMARK   41  A    between atoms: _93  and  _96
REMARK   42  A    between atoms: _96  and  _97
REMARK   43  A    between atoms: _97  and  _98
REMARK   44  A    between atoms: _98  and  _99
REMARK   45  A    between atoms: _108  and  _110
REMARK   46  A    between atoms: _110  and  _111
REMARK   47  A    between atoms: _113  and  _115
REMARK   48  A    between atoms: _115  and  _116
REMARK   49  A    between atoms: _115  and  _118
REMARK   50  A    between atoms: _118  and  _119
REMARK   51  A    between atoms: _119  and  _120
REMARK   52  A    between atoms: _123  and  _125
REMARK   53  A    between atoms: _125  and  _126
REMARK   54  A    between atoms: _125  and  _128
REMARK   55  A    between atoms: _128  and  _129
REMARK   56  A    between atoms: _132  and  _134
REMARK   57  A    between atoms: _134  and  _135
REMARK   58  A    between atoms: _134  and  _137
REMARK   59  A    between atoms: _137  and  _138
REMARK   60  A    between atoms: _140  and  _142
REMARK   61  A    between atoms: _142  and  _143
REMARK   62  A    between atoms: _142  and  _145
REMARK   63  A    between atoms: _145  and  _146
REMARK   64  A    between atoms: _149  and  _151
REMARK   65  A    between atoms: _151  and  _152
REMARK   66  A    between atoms: _151  and  _154
REMARK   67  A    between atoms: _154  and  _155
REMARK   68  A    between atoms: _156  and  ZN_336
REMARK   69  A    between atoms: _160  and  _162
REMARK   70  A    between atoms: _162  and  _163
REMARK   71  A    between atoms: _162  and  _165
REMARK   72  A    between atoms: _165  and  _166
REMARK   73  A    between atoms: _168  and  _170
REMARK   74  A    between atoms: _170  and  _171
REMARK   75  A    between atoms: _170  and  _173
REMARK   76  A    between atoms: _173  and  _174
REMARK   77  A    between atoms: _179  and  _180
REMARK   78  A    between atoms: _182  and  _184
REMARK   79  A    between atoms: _184  and  _185
REMARK   80  A    between atoms: _184  and  _187
REMARK   81  A    between atoms: _187  and  _188
REMARK   82  A    between atoms: _190  and  _192
REMARK   83  A    between atoms: _192  and  _193
REMARK   84  A    between atoms: _192  and  _195
REMARK   85  A    between atoms: _195  and  _196
REMARK   86  A    between atoms: _199  and  _201
REMARK   87  A    between atoms: _201  and  _202
REMARK   88  A    between atoms: _201  and  _204
REMARK   89  A    between atoms: _204  and  _205
REMARK   90  A    between atoms: _208  and  _210
REMARK   91  A    between atoms: _210  and  _211
REMARK   92  A    between atoms: _210  and  _213
REMARK   93  A    between atoms: _213  and  _214
REMARK   94  A    between atoms: _217  and  _219
REMARK   95  A    between atoms: _219  and  _220
REMARK   96  A    between atoms: _219  and  _222
REMARK   97  A    between atoms: _222  and  _223
REMARK   98  A    between atoms: _226  and  _228
REMARK   99  A    between atoms: _228  and  _229
REMARK  100  A    between atoms: _228  and  _231
REMARK  101  A    between atoms: _231  and  _232
REMARK  102  A    between atoms: _237  and  _238
REMARK  103  A    between atoms: _240  and  _242
REMARK  104  A    between atoms: _242  and  _243
REMARK  105  A    between atoms: _242  and  _245
REMARK  106  A    between atoms: _245  and  _246
REMARK  107  A    between atoms: _246  and  _247
REMARK  108  A    between atoms: _252  and  _254
REMARK  109  A    between atoms: _254  and  _255
REMARK  110  A    between atoms: _258  and  _260
REMARK  111  A    between atoms: _260  and  _261
REMARK  112  A    between atoms: _260  and  _263
REMARK  113  A    between atoms: _263  and  _264
REMARK  114  A    between atoms: _266  and  _268
REMARK  115  A    between atoms: _268  and  _269
REMARK  116  A    between atoms: _271  and  _273
REMARK  117  A    between atoms: _273  and  _274
REMARK  118  A    between atoms: _276  and  _278
REMARK  119  A    between atoms: _278  and  _279
REMARK  120  A    between atoms: _278  and  _281
REMARK  121  A    between atoms: _281  and  _282
REMARK  122  A    between atoms: _284  and  _286
REMARK  123  A    between atoms: _286  and  _287
REMARK  124  A    between atoms: _286  and  _289
REMARK  125  A    between atoms: _289  and  _290
REMARK  126  A    between atoms: _293  and  _295
REMARK  127  A    between atoms: _295  and  _296
REMARK  128  A    between atoms: _295  and  _298
REMARK  129  A    between atoms: _298  and  _299
REMARK  130  A    between atoms: _305  and  _307
REMARK  131  A    between atoms: _307  and  _308
REMARK  132  A    between atoms: _307  and  _310
REMARK  133  A    between atoms: _310  and  _311
REMARK  134  A    between atoms: _311  and  _312
REMARK  135  A    between atoms: _315  and  _317
REMARK  136  A    between atoms: _317  and  _318
REMARK  137  A    between atoms: _317  and  _320
REMARK  138  A    between atoms: _320  and  _321
REMARK  139  A    between atoms: _324  and  _326
REMARK  140  A    between atoms: _326  and  _327
REMARK  141  A    between atoms: _326  and  _329
REMARK  142  A    between atoms: _329  and  _330
REMARK                            x       y       z     vdW  Elec       q    Type
REMARK                         _______ _______ _______ _____ _____    ______ ____
ROOT
ATOM      1  O   HOH     1       2.178  -7.559  22.501  0.00  0.00    +0.000 OA
ENDROOT
TORSDOF 0
REMARK  Name = ../refined-set-2016/1f57/1f57_pocket.pdb
REMARK  142 active torsions:
REMARK  status: ('A' for Active; 'I' for Inactive)
REMARK    1  A    between atoms: _1  and  _3
REMARK    2  A    between atoms: _3  and  _4
REMARK    3  A    between atoms: _3  and  _6
REMARK    4  A    between atoms: _6  and  _7
REMARK    5  A    between atoms: _10  and  _12
REMARK    6  A    between atoms: _12  and  _13
REMARK    7  A    between atoms: _12  and  _15
REMARK    8  A    between atoms: _15  and  _16
REMARK    9  A    between atoms: _17  and  ZN_336
REMARK   10  A    between atoms: _21  and  _23
REMARK   11  A    between atoms: _23  and  _24
REMARK   12  A    between atoms: _23  and  _26
REMARK   13  A    between atoms: _26  and  _27
REMARK   14  A    between atoms: _27  and  _28
REMARK   15  A    between atoms: _28  and  _29
REMARK   16  A    between atoms: _38  and  _40
REMARK   17  A    between atoms: _40  and  _41
REMARK   18  A    between atoms: _40  and  _43
REMARK   19  A    between atoms: _43  and  _44
REMARK   20  A    between atoms: _44  and  _45
REMARK   21  A    between atoms: _45  and  _46
REMARK   22  A    between atoms: _46  and  ZN_336
REMARK   23  A    between atoms: _48  and  _50
REMARK   24  A    between atoms: _50  and  _51
REMARK   25  A    between atoms: _50  and  _53
REMARK   26  A    between atoms: _53  and  _54
REMARK   27  A    between atoms: _54  and  _55
REMARK   28  A    between atoms: _55  and  _56
REMARK   29  A    between atoms: _65  and  _67
REMARK   30  A    between atoms: _67  and  _68
REMARK   31  A    between atoms: _67  and  _70
REMARK   32  A    between atoms: _70  and  _71
REMARK   33  A    between atoms: _74  and  _76
REMARK   34  A    between atoms: _76  and  _77
REMARK   35  A    between atoms: _80  and  _82
REMARK   36  A    between atoms: _82  and  _83
REMARK   37  A    between atoms: _82  and  _85
REMARK   38  A    between atoms: _85  and  _86
REMARK   39  A    between atoms: _91  and  _93
REMARK   40  A    between atoms: _93  and  _94
REMARK   41  A    between atoms: _93  and  _96
REMARK   42  A    between atoms: _96  and  _97
REMARK   43  A    between atoms: _97  and  _98
REMARK   44  A    between atoms: _98  and  _99
REMARK   45  A    between atoms: _108  and  _110
REMARK   46  A    between atoms: _110  and  _111
REMARK   47  A    between atoms: _113  and  _115
REMARK   48  A    between atoms: _115  and  _116
REMARK   49  A    between atoms: _115  and  _118
REMARK   50  A    between atoms: _118  and  _119
REMARK   51  A    between atoms: _119  and  _120
REMARK   52  A    between atoms: _123  and  _125
REMARK   53  A    between atoms: _125  and  _126
REMARK   54  A    between atoms: _125  and  _128
REMARK   55  A    between atoms: _128  and  _129
REMARK   56  A    between atoms: _132  and  _134
REMARK   57  A    between atoms: _134  and  _135
REMARK   58  A    between atoms: _134  and  _137
REMARK   59  A    between atoms: _137  and  _138
REMARK   60  A    between atoms: _140  and  _142
REMARK   61  A    between atoms: _142  and  _143
REMARK   62  A    between atoms: _142  and  _145
REMARK   63  A    between atoms: _145  and  _146
REMARK   64  A    between atoms: _149  and  _151
REMARK   65  A    between atoms: _151  and  _152
REMARK   66  A    between atoms: _151  and  _154
REMARK   67  A    between atoms: _154  and  _155
REMARK   68  A    between atoms: _156  and  ZN_336
REMARK   69  A    between atoms: _160  and  _162
REMARK   70  A    between atoms: _162  and  _163
REMARK   71  A    between atoms: _162  and  _165
REMARK   72  A    between atoms: _165  and  _166
REMARK   73  A    between atoms: _168  and  _170
REMARK   74  A    between atoms: _170  and  _171
REMARK   75  A    between atoms: _170  and  _173
REMARK   76  A    between atoms: _173  and  _174
REMARK   77  A    between atoms: _179  and  _180
REMARK   78  A    between atoms: _182  and  _184
REMARK   79  A    between atoms: _184  and  _185
REMARK   80  A    between atoms: _184  and  _187
REMARK   81  A    between atoms: _187  and  _188
REMARK   82  A    between atoms: _190  and  _192
REMARK   83  A    between atoms: _192  and  _193
REMARK   84  A    between atoms: _192  and  _195
REMARK   85  A    between atoms: _195  and  _196
REMARK   86  A    between atoms: _199  and  _201
REMARK   87  A    between atoms: _201  and  _202
REMARK   88  A    between atoms: _201  and  _204
REMARK   89  A    between atoms: _204  and  _205
REMARK   90  A    between atoms: _208  and  _210
REMARK   91  A    between atoms: _210  and  _211
REMARK   92  A    between atoms: _210  and  _213
REMARK   93  A    between atoms: _213  and  _214
REMARK   94  A    between atoms: _217  and  _219
REMARK   95  A    between atoms: _219  and  _220
REMARK   96  A    between atoms: _219  and  _222
REMARK   97  A    between atoms: _222  and  _223
REMARK   98  A    between atoms: _226  and  _228
REMARK   99  A    between atoms: _228  and  _229
REMARK  100  A    between atoms: _228  and  _231
REMARK  101  A    between atoms: _231  and  _232
REMARK  102  A    between atoms: _237  and  _238
REMARK  103  A    between atoms: _240  and  _242
REMARK  104  A    between atoms: _242  and  _243
REMARK  105  A    between atoms: _242  and  _245
REMARK  106  A    between atoms: _245  and  _246
REMARK  107  A    between atoms: _246  and  _247
REMARK  108  A    between atoms: _252  and  _254
REMARK  109  A    between atoms: _254  and  _255
REMARK  110  A    between atoms: _258  and  _260
REMARK  111  A    between atoms: _260  and  _261
REMARK  112  A    between atoms: _260  and  _263
REMARK  113  A    between atoms: _263  and  _264
REMARK  114  A    between atoms: _266  and  _268
REMARK  115  A    between atoms: _268  and  _269
REMARK  116  A    between atoms: _271  and  _273
REMARK  117  A    between atoms: _273  and  _274
REMARK  118  A    between atoms: _276  and  _278
REMARK  119  A    between atoms: _278  and  _279
REMARK  120  A    between atoms: _278  and  _281
REMARK  121  A    between atoms: _281  and  _282
REMARK  122  A    between atoms: _284  and  _286
REMARK  123  A    between atoms: _286  and  _287
REMARK  124  A    between atoms: _286  and  _289
REMARK  125  A    between atoms: _289  and  _290
REMARK  126  A    between atoms: _293  and  _295
REMARK  127  A    between atoms: _295  and  _296
REMARK  128  A    between atoms: _295  and  _298
REMARK  129  A    between atoms: _298  and  _299
REMARK  130  A    between atoms: _305  and  _307
REMARK  131  A    between atoms: _307  and  _308
REMARK  132  A    between atoms: _307  and  _310
REMARK  133  A    between atoms: _310  and  _311
REMARK  134  A    between atoms: _311  and  _312
REMARK  135  A    between atoms: _315  and  _317
REMARK  136  A    between atoms: _317  and  _318
REMARK  137  A    between atoms: _317  and  _320
REMARK  138  A    between atoms: _320  and  _321
REMARK  139  A    between atoms: _324  and  _326
REMARK  140  A    between atoms: _326  and  _327
REMARK  141  A    between atoms: _326  and  _329
REMARK  142  A    between atoms: _329  and  _330
REMARK                            x       y       z     vdW  Elec       q    Type
REMARK                         _______ _______ _______ _____ _____    ______ ____
ROOT
ATOM      1  O   HOH     1      13.110 -10.179  20.375  0.00  0.00    +0.000 OA
ENDROOT
TORSDOF 0
REMARK  Name = ../refined-set-2016/1f57/1f57_pocket.pdb
REMARK  142 active torsions:
REMARK  status: ('A' for Active; 'I' for Inactive)
REMARK    1  A    between atoms: _1  and  _3
REMARK    2  A    between atoms: _3  and  _4
REMARK    3  A    between atoms: _3  and  _6
REMARK    4  A    between atoms: _6  and  _7
REMARK    5  A    between atoms: _10  and  _12
REMARK    6  A    between atoms: _12  and  _13
REMARK    7  A    between atoms: _12  and  _15
REMARK    8  A    between atoms: _15  and  _16
REMARK    9  A    between atoms: _17  and  ZN_336
REMARK   10  A    between atoms: _21  and  _23
REMARK   11  A    between atoms: _23  and  _24
REMARK   12  A    between atoms: _23  and  _26
REMARK   13  A    between atoms: _26  and  _27
REMARK   14  A    between atoms: _27  and  _28
REMARK   15  A    between atoms: _28  and  _29
REMARK   16  A    between atoms: _38  and  _40
REMARK   17  A    between atoms: _40  and  _41
REMARK   18  A    between atoms: _40  and  _43
REMARK   19  A    between atoms: _43  and  _44
REMARK   20  A    between atoms: _44  and  _45
REMARK   21  A    between atoms: _45  and  _46
REMARK   22  A    between atoms: _46  and  ZN_336
REMARK   23  A    between atoms: _48  and  _50
REMARK   24  A    between atoms: _50  and  _51
REMARK   25  A    between atoms: _50  and  _53
REMARK   26  A    between atoms: _53  and  _54
REMARK   27  A    between atoms: _54  and  _55
REMARK   28  A    between atoms: _55  and  _56
REMARK   29  A    between atoms: _65  and  _67
REMARK   30  A    between atoms: _67  and  _68
REMARK   31  A    between atoms: _67  and  _70
REMARK   32  A    between atoms: _70  and  _71
REMARK   33  A    between atoms: _74  and  _76
REMARK   34  A    between atoms: _76  and  _77
REMARK   35  A    between atoms: _80  and  _82
REMARK   36  A    between atoms: _82  and  _83
REMARK   37  A    between atoms: _82  and  _85
REMARK   38  A    between atoms: _85  and  _86
REMARK   39  A    between atoms: _91  and  _93
REMARK   40  A    between atoms: _93  and  _94
REMARK   41  A    between atoms: _93  and  _96
REMARK   42  A    between atoms: _96  and  _97
REMARK   43  A    between atoms: _97  and  _98
REMARK   44  A    between atoms: _98  and  _99
REMARK   45  A    between atoms: _108  and  _110
REMARK   46  A    between atoms: _110  and  _111
REMARK   47  A    between atoms: _113  and  _115
REMARK   48  A    between atoms: _115  and  _116
REMARK   49  A    between atoms: _115  and  _118
REMARK   50  A    between atoms: _118  and  _119
REMARK   51  A    between atoms: _119  and  _120
REMARK   52  A    between atoms: _123  and  _125
REMARK   53  A    between atoms: _125  and  _126
REMARK   54  A    between atoms: _125  and  _128
REMARK   55  A    between atoms: _128  and  _129
REMARK   56  A    between atoms: _132  and  _134
REMARK   57  A    between atoms: _134  and  _135
REMARK   58  A    between atoms: _134  and  _137
REMARK   59  A    between atoms: _137  and  _138
REMARK   60  A    between atoms: _140  and  _142
REMARK   61  A    between atoms: _142  and  _143
REMARK   62  A    between atoms: _142  and  _145
REMARK   63  A    between atoms: _145  and  _146
REMARK   64  A    between atoms: _149  and  _151
REMARK   65  A    between atoms: _151  and  _152
REMARK   66  A    between atoms: _151  and  _154
REMARK   67  A    between atoms: _154  and  _155
REMARK   68  A    between atoms: _156  and  ZN_336
REMARK   69  A    between atoms: _160  and  _162
REMARK   70  A    between atoms: _162  and  _163
REMARK   71  A    between atoms: _162  and  _165
REMARK   72  A    between atoms: _165  and  _166
REMARK   73  A    between atoms: _168  and  _170
REMARK   74  A    between atoms: _170  and  _171
REMARK   75  A    between atoms: _170  and  _173
REMARK   76  A    between atoms: _173  and  _174
REMARK   77  A    between atoms: _179  and  _180
REMARK   78  A    between atoms: _182  and  _184
REMARK   79  A    between atoms: _184  and  _185
REMARK   80  A    between atoms: _184  and  _187
REMARK   81  A    between atoms: _187  and  _188
REMARK   82  A    between atoms: _190  and  _192
REMARK   83  A    between atoms: _192  and  _193
REMARK   84  A    between atoms: _192  and  _195
REMARK   85  A    between atoms: _195  and  _196
REMARK   86  A    between atoms: _199  and  _201
REMARK   87  A    between atoms: _201  and  _202
REMARK   88  A    between atoms: _201  and  _204
REMARK   89  A    between atoms: _204  and  _205
REMARK   90  A    between atoms: _208  and  _210
REMARK   91  A    between atoms: _210  and  _211
REMARK   92  A    between atoms: _210  and  _213
REMARK   93  A    between atoms: _213  and  _214
REMARK   94  A    between atoms: _217  and  _219
REMARK   95  A    between atoms: _219  and  _220
REMARK   96  A    between atoms: _219  and  _222
REMARK   97  A    between atoms: _222  and  _223
REMARK   98  A    between atoms: _226  and  _228
REMARK   99  A    between atoms: _228  and  _229
REMARK  100  A    between atoms: _228  and  _231
REMARK  101  A    between atoms: _231  and  _232
REMARK  102  A    between atoms: _237  and  _238
REMARK  103  A    between atoms: _240  and  _242
REMARK  104  A    between atoms: _242  and  _243
REMARK  105  A    between atoms: _242  and  _245
REMARK  106  A    between atoms: _245  and  _246
REMARK  107  A    between atoms: _246  and  _247
REMARK  108  A    between atoms: _252  and  _254
REMARK  109  A    between atoms: _254  and  _255
REMARK  110  A    between atoms: _258  and  _260
REMARK  111  A    between atoms: _260  and  _261
REMARK  112  A    between atoms: _260  and  _263
REMARK  113  A    between atoms: _263  and  _264
REMARK  114  A    between atoms: _266  and  _268
REMARK  115  A    between atoms: _268  and  _269
REMARK  116  A    between atoms: _271  and  _273
REMARK  117  A    between atoms: _273  and  _274
REMARK  118  A    between atoms: _276  and  _278
REMARK  119  A    between atoms: _278  and  _279
REMARK  120  A    between atoms: _278  and  _281
REMARK  121  A    between atoms: _281  and  _282
REMARK  122  A    between atoms: _284  and  _286
REMARK  123  A    between atoms: _286  and  _287
REMARK  124  A    between atoms: _286  and  _289
REMARK  125  A    between atoms: _289  and  _290
REMARK  126  A    between atoms: _293  and  _295
REMARK  127  A    between atoms: _295  and  _296
REMARK  128  A    between atoms: _295  and  _298
REMARK  129  A    between atoms: _298  and  _299
REMARK  130  A    between atoms: _305  and  _307
REMARK  131  A    between atoms: _307  and  _308
REMARK  132  A    between atoms: _307  and  _310
REMARK  133  A    between atoms: _310  and  _311
REMARK  134  A    between atoms: _311  and  _312
REMARK  135  A    between atoms: _315  and  _317
REMARK  136  A    between atoms: _317  and  _318
REMARK  137  A    between atoms: _317  and  _320
REMARK  138  A    between atoms: _320  and  _321
REMARK  139  A    between atoms: _324  and  _326
REMARK  140  A    between atoms: _326  and  _327
REMARK  141  A    between atoms: _326  and  _329
REMARK  142  A    between atoms: _329  and  _330
REMARK                            x       y       z     vdW  Elec       q    Type
REMARK                         _______ _______ _______ _____ _____    ______ ____
ROOT
ATOM      1  O   HOH     1      15.070 -10.044  23.750  0.00  0.00    +0.000 OA
ENDROOT
TORSDOF 0
REMARK  Name = ../refined-set-2016/1f57/1f57_pocket.pdb
REMARK  142 active torsions:
REMARK  status: ('A' for Active; 'I' for Inactive)
REMARK    1  A    between atoms: _1  and  _3
REMARK    2  A    between atoms: _3  and  _4
REMARK    3  A    between atoms: _3  and  _6
REMARK    4  A    between atoms: _6  and  _7
REMARK    5  A    between atoms: _10  and  _12
REMARK    6  A    between atoms: _12  and  _13
REMARK    7  A    between atoms: _12  and  _15
REMARK    8  A    between atoms: _15  and  _16
REMARK    9  A    between atoms: _17  and  ZN_336
REMARK   10  A    between atoms: _21  and  _23
REMARK   11  A    between atoms: _23  and  _24
REMARK   12  A    between atoms: _23  and  _26
REMARK   13  A    between atoms: _26  and  _27
REMARK   14  A    between atoms: _27  and  _28
REMARK   15  A    between atoms: _28  and  _29
REMARK   16  A    between atoms: _38  and  _40
REMARK   17  A    between atoms: _40  and  _41
REMARK   18  A    between atoms: _40  and  _43
REMARK   19  A    between atoms: _43  and  _44
REMARK   20  A    between atoms: _44  and  _45
REMARK   21  A    between atoms: _45  and  _46
REMARK   22  A    between atoms: _46  and  ZN_336
REMARK   23  A    between atoms: _48  and  _50
REMARK   24  A    between atoms: _50  and  _51
REMARK   25  A    between atoms: _50  and  _53
REMARK   26  A    between atoms: _53  and  _54
REMARK   27  A    between atoms: _54  and  _55
REMARK   28  A    between atoms: _55  and  _56
REMARK   29  A    between atoms: _65  and  _67
REMARK   30  A    between atoms: _67  and  _68
REMARK   31  A    between atoms: _67  and  _70
REMARK   32  A    between atoms: _70  and  _71
REMARK   33  A    between atoms: _74  and  _76
REMARK   34  A    between atoms: _76  and  _77
REMARK   35  A    between atoms: _80  and  _82
REMARK   36  A    between atoms: _82  and  _83
REMARK   37  A    between atoms: _82  and  _85
REMARK   38  A    between atoms: _85  and  _86
REMARK   39  A    between atoms: _91  and  _93
REMARK   40  A    between atoms: _93  and  _94
REMARK   41  A    between atoms: _93  and  _96
REMARK   42  A    between atoms: _96  and  _97
REMARK   43  A    between atoms: _97  and  _98
REMARK   44  A    between atoms: _98  and  _99
REMARK   45  A    between atoms: _108  and  _110
REMARK   46  A    between atoms: _110  and  _111
REMARK   47  A    between atoms: _113  and  _115
REMARK   48  A    between atoms: _115  and  _116
REMARK   49  A    between atoms: _115  and  _118
REMARK   50  A    between atoms: _118  and  _119
REMARK   51  A    between atoms: _119  and  _120
REMARK   52  A    between atoms: _123  and  _125
REMARK   53  A    between atoms: _125  and  _126
REMARK   54  A    between atoms: _125  and  _128
REMARK   55  A    between atoms: _128  and  _129
REMARK   56  A    between atoms: _132  and  _134
REMARK   57  A    between atoms: _134  and  _135
REMARK   58  A    between atoms: _134  and  _137
REMARK   59  A    between atoms: _137  and  _138
REMARK   60  A    between atoms: _140  and  _142
REMARK   61  A    between atoms: _142  and  _143
REMARK   62  A    between atoms: _142  and  _145
REMARK   63  A    between atoms: _145  and  _146
REMARK   64  A    between atoms: _149  and  _151
REMARK   65  A    between atoms: _151  and  _152
REMARK   66  A    between atoms: _151  and  _154
REMARK   67  A    between atoms: _154  and  _155
REMARK   68  A    between atoms: _156  and  ZN_336
REMARK   69  A    between atoms: _160  and  _162
REMARK   70  A    between atoms: _162  and  _163
REMARK   71  A    between atoms: _162  and  _165
REMARK   72  A    between atoms: _165  and  _166
REMARK   73  A    between atoms: _168  and  _170
REMARK   74  A    between atoms: _170  and  _171
REMARK   75  A    between atoms: _170  and  _173
REMARK   76  A    between atoms: _173  and  _174
REMARK   77  A    between atoms: _179  and  _180
REMARK   78  A    between atoms: _182  and  _184
REMARK   79  A    between atoms: _184  and  _185
REMARK   80  A    between atoms: _184  and  _187
REMARK   81  A    between atoms: _187  and  _188
REMARK   82  A    between atoms: _190  and  _192
REMARK   83  A    between atoms: _192  and  _193
REMARK   84  A    between atoms: _192  and  _195
REMARK   85  A    between atoms: _195  and  _196
REMARK   86  A    between atoms: _199  and  _201
REMARK   87  A    between atoms: _201  and  _202
REMARK   88  A    between atoms: _201  and  _204
REMARK   89  A    between atoms: _204  and  _205
REMARK   90  A    between atoms: _208  and  _210
REMARK   91  A    between atoms: _210  and  _211
REMARK   92  A    between atoms: _210  and  _213
REMARK   93  A    between atoms: _213  and  _214
REMARK   94  A    between atoms: _217  and  _219
REMARK   95  A    between atoms: _219  and  _220
REMARK   96  A    between atoms: _219  and  _222
REMARK   97  A    between atoms: _222  and  _223
REMARK   98  A    between atoms: _226  and  _228
REMARK   99  A    between atoms: _228  and  _229
REMARK  100  A    between atoms: _228  and  _231
REMARK  101  A    between atoms: _231  and  _232
REMARK  102  A    between atoms: _237  and  _238
REMARK  103  A    between atoms: _240  and  _242
REMARK  104  A    between atoms: _242  and  _243
REMARK  105  A    between atoms: _242  and  _245
REMARK  106  A    between atoms: _245  and  _246
REMARK  107  A    between atoms: _246  and  _247
REMARK  108  A    between atoms: _252  and  _254
REMARK  109  A    between atoms: _254  and  _255
REMARK  110  A    between atoms: _258  and  _260
REMARK  111  A    between atoms: _260  and  _261
REMARK  112  A    between atoms: _260  and  _263
REMARK  113  A    between atoms: _263  and  _264
REMARK  114  A    between atoms: _266  and  _268
REMARK  115  A    between atoms: _268  and  _269
REMARK  116  A    between atoms: _271  and  _273
REMARK  117  A    between atoms: _273  and  _274
REMARK  118  A    between atoms: _276  and  _278
REMARK  119  A    between atoms: _278  and  _279
REMARK  120  A    between atoms: _278  and  _281
REMARK  121  A    between atoms: _281  and  _282
REMARK  122  A    between atoms: _284  and  _286
REMARK  123  A    between atoms: _286  and  _287
REMARK  124  A    between atoms: _286  and  _289
REMARK  125  A    between atoms: _289  and  _290
REMARK  126  A    between atoms: _293  and  _295
REMARK  127  A    between atoms: _295  and  _296
REMARK  128  A    between atoms: _295  and  _298
REMARK  129  A    between atoms: _298  and  _299
REMARK  130  A    between atoms: _305  and  _307
REMARK  131  A    between atoms: _307  and  _308
REMARK  132  A    between atoms: _307  and  _310
REMARK  133  A    between atoms: _310  and  _311
REMARK  134  A    between atoms: _311  and  _312
REMARK  135  A    between atoms: _315  and  _317
REMARK  136  A    between atoms: _317  and  _318
REMARK  137  A    between atoms: _317  and  _320
REMARK  138  A    between atoms: _320  and  _321
REMARK  139  A    between atoms: _324  and  _326
REMARK  140  A    between atoms: _326  and  _327
REMARK  141  A    between atoms: _326  and  _329
REMARK  142  A    between atoms: _329  and  _330
REMARK                            x       y       z     vdW  Elec       q    Type
REMARK                         _______ _______ _______ _____ _____    ______ ____
ROOT
ATOM      1  O   HOH     1       8.071 -12.539  29.827  0.00  0.00    +0.000 OA
ENDROOT
TORSDOF 0
REMARK  Name = ../refined-set-2016/1f57/1f57_pocket.pdb
REMARK  142 active torsions:
REMARK  status: ('A' for Active; 'I' for Inactive)
REMARK    1  A    between atoms: _1  and  _3
REMARK    2  A    between atoms: _3  and  _4
REMARK    3  A    between atoms: _3  and  _6
REMARK    4  A    between atoms: _6  and  _7
REMARK    5  A    between atoms: _10  and  _12
REMARK    6  A    between atoms: _12  and  _13
REMARK    7  A    between atoms: _12  and  _15
REMARK    8  A    between atoms: _15  and  _16
REMARK    9  A    between atoms: _17  and  ZN_336
REMARK   10  A    between atoms: _21  and  _23
REMARK   11  A    between atoms: _23  and  _24
REMARK   12  A    between atoms: _23  and  _26
REMARK   13  A    between atoms: _26  and  _27
REMARK   14  A    between atoms: _27  and  _28
REMARK   15  A    between atoms: _28  and  _29
REMARK   16  A    between atoms: _38  and  _40
REMARK   17  A    between atoms: _40  and  _41
REMARK   18  A    between atoms: _40  and  _43
REMARK   19  A    between atoms: _43  and  _44
REMARK   20  A    between atoms: _44  and  _45
REMARK   21  A    between atoms: _45  and  _46
REMARK   22  A    between atoms: _46  and  ZN_336
REMARK   23  A    between atoms: _48  and  _50
REMARK   24  A    between atoms: _50  and  _51
REMARK   25  A    between atoms: _50  and  _53
REMARK   26  A    between atoms: _53  and  _54
REMARK   27  A    between atoms: _54  and  _55
REMARK   28  A    between atoms: _55  and  _56
REMARK   29  A    between atoms: _65  and  _67
REMARK   30  A    between atoms: _67  and  _68
REMARK   31  A    between atoms: _67  and  _70
REMARK   32  A    between atoms: _70  and  _71
REMARK   33  A    between atoms: _74  and  _76
REMARK   34  A    between atoms: _76  and  _77
REMARK   35  A    between atoms: _80  and  _82
REMARK   36  A    between atoms: _82  and  _83
REMARK   37  A    between atoms: _82  and  _85
REMARK   38  A    between atoms: _85  and  _86
REMARK   39  A    between atoms: _91  and  _93
REMARK   40  A    between atoms: _93  and  _94
REMARK   41  A    between atoms: _93  and  _96
REMARK   42  A    between atoms: _96  and  _97
REMARK   43  A    between atoms: _97  and  _98
REMARK   44  A    between atoms: _98  and  _99
REMARK   45  A    between atoms: _108  and  _110
REMARK   46  A    between atoms: _110  and  _111
REMARK   47  A    between atoms: _113  and  _115
REMARK   48  A    between atoms: _115  and  _116
REMARK   49  A    between atoms: _115  and  _118
REMARK   50  A    between atoms: _118  and  _119
REMARK   51  A    between atoms: _119  and  _120
REMARK   52  A    between atoms: _123  and  _125
REMARK   53  A    between atoms: _125  and  _126
REMARK   54  A    between atoms: _125  and  _128
REMARK   55  A    between atoms: _128  and  _129
REMARK   56  A    between atoms: _132  and  _134
REMARK   57  A    between atoms: _134  and  _135
REMARK   58  A    between atoms: _134  and  _137
REMARK   59  A    between atoms: _137  and  _138
REMARK   60  A    between atoms: _140  and  _142
REMARK   61  A    between atoms: _142  and  _143
REMARK   62  A    between atoms: _142  and  _145
REMARK   63  A    between atoms: _145  and  _146
REMARK   64  A    between atoms: _149  and  _151
REMARK   65  A    between atoms: _151  and  _152
REMARK   66  A    between atoms: _151  and  _154
REMARK   67  A    between atoms: _154  and  _155
REMARK   68  A    between atoms: _156  and  ZN_336
REMARK   69  A    between atoms: _160  and  _162
REMARK   70  A    between atoms: _162  and  _163
REMARK   71  A    between atoms: _162  and  _165
REMARK   72  A    between atoms: _165  and  _166
REMARK   73  A    between atoms: _168  and  _170
REMARK   74  A    between atoms: _170  and  _171
REMARK   75  A    between atoms: _170  and  _173
REMARK   76  A    between atoms: _173  and  _174
REMARK   77  A    between atoms: _179  and  _180
REMARK   78  A    between atoms: _182  and  _184
REMARK   79  A    between atoms: _184  and  _185
REMARK   80  A    between atoms: _184  and  _187
REMARK   81  A    between atoms: _187  and  _188
REMARK   82  A    between atoms: _190  and  _192
REMARK   83  A    between atoms: _192  and  _193
REMARK   84  A    between atoms: _192  and  _195
REMARK   85  A    between atoms: _195  and  _196
REMARK   86  A    between atoms: _199  and  _201
REMARK   87  A    between atoms: _201  and  _202
REMARK   88  A    between atoms: _201  and  _204
REMARK   89  A    between atoms: _204  and  _205
REMARK   90  A    between atoms: _208  and  _210
REMARK   91  A    between atoms: _210  and  _211
REMARK   92  A    between atoms: _210  and  _213
REMARK   93  A    between atoms: _213  and  _214
REMARK   94  A    between atoms: _217  and  _219
REMARK   95  A    between atoms: _219  and  _220
REMARK   96  A    between atoms: _219  and  _222
REMARK   97  A    between atoms: _222  and  _223
REMARK   98  A    between atoms: _226  and  _228
REMARK   99  A    between atoms: _228  and  _229
REMARK  100  A    between atoms: _228  and  _231
REMARK  101  A    between atoms: _231  and  _232
REMARK  102  A    between atoms: _237  and  _238
REMARK  103  A    between atoms: _240  and  _242
REMARK  104  A    between atoms: _242  and  _243
REMARK  105  A    between atoms: _242  and  _245
REMARK  106  A    between atoms: _245  and  _246
REMARK  107  A    between atoms: _246  and  _247
REMARK  108  A    between atoms: _252  and  _254
REMARK  109  A    between atoms: _254  and  _255
REMARK  110  A    between atoms: _258  and  _260
REMARK  111  A    between atoms: _260  and  _261
REMARK  112  A    between atoms: _260  and  _263
REMARK  113  A    between atoms: _263  and  _264
REMARK  114  A    between atoms: _266  and  _268
REMARK  115  A    between atoms: _268  and  _269
REMARK  116  A    between atoms: _271  and  _273
REMARK  117  A    between atoms: _273  and  _274
REMARK  118  A    between atoms: _276  and  _278
REMARK  119  A    between atoms: _278  and  _279
REMARK  120  A    between atoms: _278  and  _281
REMARK  121  A    between atoms: _281  and  _282
REMARK  122  A    between atoms: _284  and  _286
REMARK  123  A    between atoms: _286  and  _287
REMARK  124  A    between atoms: _286  and  _289
REMARK  125  A    between atoms: _289  and  _290
REMARK  126  A    between atoms: _293  and  _295
REMARK  127  A    between atoms: _295  and  _296
REMARK  128  A    between atoms: _295  and  _298
REMARK  129  A    between atoms: _298  and  _299
REMARK  130  A    between atoms: _305  and  _307
REMARK  131  A    between atoms: _307  and  _308
REMARK  132  A    between atoms: _307  and  _310
REMARK  133  A    between atoms: _310  and  _311
REMARK  134  A    between atoms: _311  and  _312
REMARK  135  A    between atoms: _315  and  _317
REMARK  136  A    between atoms: _317  and  _318
REMARK  137  A    between atoms: _317  and  _320
REMARK  138  A    between atoms: _320  and  _321
REMARK  139  A    between atoms: _324  and  _326
REMARK  140  A    between atoms: _326  and  _327
REMARK  141  A    between atoms: _326  and  _329
REMARK  142  A    between atoms: _329  and  _330
REMARK                            x       y       z     vdW  Elec       q    Type
REMARK                         _______ _______ _______ _____ _____    ______ ____
ROOT
ATOM      1  O   HOH     1       4.698  -8.530  26.518  0.00  0.00    +0.000 OA
ENDROOT
TORSDOF 0
REMARK  Name = ../refined-set-2016/1f57/1f57_pocket.pdb
REMARK  142 active torsions:
REMARK  status: ('A' for Active; 'I' for Inactive)
REMARK    1  A    between atoms: _1  and  _3
REMARK    2  A    between atoms: _3  and  _4
REMARK    3  A    between atoms: _3  and  _6
REMARK    4  A    between atoms: _6  and  _7
REMARK    5  A    between atoms: _10  and  _12
REMARK    6  A    between atoms: _12  and  _13
REMARK    7  A    between atoms: _12  and  _15
REMARK    8  A    between atoms: _15  and  _16
REMARK    9  A    between atoms: _17  and  ZN_336
REMARK   10  A    between atoms: _21  and  _23
REMARK   11  A    between atoms: _23  and  _24
REMARK   12  A    between atoms: _23  and  _26
REMARK   13  A    between atoms: _26  and  _27
REMARK   14  A    between atoms: _27  and  _28
REMARK   15  A    between atoms: _28  and  _29
REMARK   16  A    between atoms: _38  and  _40
REMARK   17  A    between atoms: _40  and  _41
REMARK   18  A    between atoms: _40  and  _43
REMARK   19  A    between atoms: _43  and  _44
REMARK   20  A    between atoms: _44  and  _45
REMARK   21  A    between atoms: _45  and  _46
REMARK   22  A    between atoms: _46  and  ZN_336
REMARK   23  A    between atoms: _48  and  _50
REMARK   24  A    between atoms: _50  and  _51
REMARK   25  A    between atoms: _50  and  _53
REMARK   26  A    between atoms: _53  and  _54
REMARK   27  A    between atoms: _54  and  _55
REMARK   28  A    between atoms: _55  and  _56
REMARK   29  A    between atoms: _65  and  _67
REMARK   30  A    between atoms: _67  and  _68
REMARK   31  A    between atoms: _67  and  _70
REMARK   32  A    between atoms: _70  and  _71
REMARK   33  A    between atoms: _74  and  _76
REMARK   34  A    between atoms: _76  and  _77
REMARK   35  A    between atoms: _80  and  _82
REMARK   36  A    between atoms: _82  and  _83
REMARK   37  A    between atoms: _82  and  _85
REMARK   38  A    between atoms: _85  and  _86
REMARK   39  A    between atoms: _91  and  _93
REMARK   40  A    between atoms: _93  and  _94
REMARK   41  A    between atoms: _93  and  _96
REMARK   42  A    between atoms: _96  and  _97
REMARK   43  A    between atoms: _97  and  _98
REMARK   44  A    between atoms: _98  and  _99
REMARK   45  A    between atoms: _108  and  _110
REMARK   46  A    between atoms: _110  and  _111
REMARK   47  A    between atoms: _113  and  _115
REMARK   48  A    between atoms: _115  and  _116
REMARK   49  A    between atoms: _115  and  _118
REMARK   50  A    between atoms: _118  and  _119
REMARK   51  A    between atoms: _119  and  _120
REMARK   52  A    between atoms: _123  and  _125
REMARK   53  A    between atoms: _125  and  _126
REMARK   54  A    between atoms: _125  and  _128
REMARK   55  A    between atoms: _128  and  _129
REMARK   56  A    between atoms: _132  and  _134
REMARK   57  A    between atoms: _134  and  _135
REMARK   58  A    between atoms: _134  and  _137
REMARK   59  A    between atoms: _137  and  _138
REMARK   60  A    between atoms: _140  and  _142
REMARK   61  A    between atoms: _142  and  _143
REMARK   62  A    between atoms: _142  and  _145
REMARK   63  A    between atoms: _145  and  _146
REMARK   64  A    between atoms: _149  and  _151
REMARK   65  A    between atoms: _151  and  _152
REMARK   66  A    between atoms: _151  and  _154
REMARK   67  A    between atoms: _154  and  _155
REMARK   68  A    between atoms: _156  and  ZN_336
REMARK   69  A    between atoms: _160  and  _162
REMARK   70  A    between atoms: _162  and  _163
REMARK   71  A    between atoms: _162  and  _165
REMARK   72  A    between atoms: _165  and  _166
REMARK   73  A    between atoms: _168  and  _170
REMARK   74  A    between atoms: _170  and  _171
REMARK   75  A    between atoms: _170  and  _173
REMARK   76  A    between atoms: _173  and  _174
REMARK   77  A    between atoms: _179  and  _180
REMARK   78  A    between atoms: _182  and  _184
REMARK   79  A    between atoms: _184  and  _185
REMARK   80  A    between atoms: _184  and  _187
REMARK   81  A    between atoms: _187  and  _188
REMARK   82  A    between atoms: _190  and  _192
REMARK   83  A    between atoms: _192  and  _193
REMARK   84  A    between atoms: _192  and  _195
REMARK   85  A    between atoms: _195  and  _196
REMARK   86  A    between atoms: _199  and  _201
REMARK   87  A    between atoms: _201  and  _202
REMARK   88  A    between atoms: _201  and  _204
REMARK   89  A    between atoms: _204  and  _205
REMARK   90  A    between atoms: _208  and  _210
REMARK   91  A    between atoms: _210  and  _211
REMARK   92  A    between atoms: _210  and  _213
REMARK   93  A    between atoms: _213  and  _214
REMARK   94  A    between atoms: _217  and  _219
REMARK   95  A    between atoms: _219  and  _220
REMARK   96  A    between atoms: _219  and  _222
REMARK   97  A    between atoms: _222  and  _223
REMARK   98  A    between atoms: _226  and  _228
REMARK   99  A    between atoms: _228  and  _229
REMARK  100  A    between atoms: _228  and  _231
REMARK  101  A    between atoms: _231  and  _232
REMARK  102  A    between atoms: _237  and  _238
REMARK  103  A    between atoms: _240  and  _242
REMARK  104  A    between atoms: _242  and  _243
REMARK  105  A    between atoms: _242  and  _245
REMARK  106  A    between atoms: _245  and  _246
REMARK  107  A    between atoms: _246  and  _247
REMARK  108  A    between atoms: _252  and  _254
REMARK  109  A    between atoms: _254  and  _255
REMARK  110  A    between atoms: _258  and  _260
REMARK  111  A    between atoms: _260  and  _261
REMARK  112  A    between atoms: _260  and  _263
REMARK  113  A    between atoms: _263  and  _264
REMARK  114  A    between atoms: _266  and  _268
REMARK  115  A    between atoms: _268  and  _269
REMARK  116  A    between atoms: _271  and  _273
REMARK  117  A    between atoms: _273  and  _274
REMARK  118  A    between atoms: _276  and  _278
REMARK  119  A    between atoms: _278  and  _279
REMARK  120  A    between atoms: _278  and  _281
REMARK  121  A    between atoms: _281  and  _282
REMARK  122  A    between atoms: _284  and  _286
REMARK  123  A    between atoms: _286  and  _287
REMARK  124  A    between atoms: _286  and  _289
REMARK  125  A    between atoms: _289  and  _290
REMARK  126  A    between atoms: _293  and  _295
REMARK  127  A    between atoms: _295  and  _296
REMARK  128  A    between atoms: _295  and  _298
REMARK  129  A    between atoms: _298  and  _299
REMARK  130  A    between atoms: _305  and  _307
REMARK  131  A    between atoms: _307  and  _308
REMARK  132  A    between atoms: _307  and  _310
REMARK  133  A    between atoms: _310  and  _311
REMARK  134  A    between atoms: _311  and  _312
REMARK  135  A    between atoms: _315  and  _317
REMARK  136  A    between atoms: _317  and  _318
REMARK  137  A    between atoms: _317  and  _320
REMARK  138  A    between atoms: _320  and  _321
REMARK  139  A    between atoms: _324  and  _326
REMARK  140  A    between atoms: _326  and  _327
REMARK  141  A    between atoms: _326  and  _329
REMARK  142  A    between atoms: _329  and  _330
REMARK                            x       y       z     vdW  Elec       q    Type
REMARK                         _______ _______ _______ _____ _____    ______ ____
ROOT
ATOM      1  O   HOH     1       7.087 -14.433  25.481  0.00  0.00    +0.000 OA
ENDROOT
TORSDOF 0
REMARK  Name = ../refined-set-2016/1f57/1f57_pocket.pdb
REMARK  142 active torsions:
REMARK  status: ('A' for Active; 'I' for Inactive)
REMARK    1  A    between atoms: _1  and  _3
REMARK    2  A    between atoms: _3  and  _4
REMARK    3  A    between atoms: _3  and  _6
REMARK    4  A    between atoms: _6  and  _7
REMARK    5  A    between atoms: _10  and  _12
REMARK    6  A    between atoms: _12  and  _13
REMARK    7  A    between atoms: _12  and  _15
REMARK    8  A    between atoms: _15  and  _16
REMARK    9  A    between atoms: _17  and  ZN_336
REMARK   10  A    between atoms: _21  and  _23
REMARK   11  A    between atoms: _23  and  _24
REMARK   12  A    between atoms: _23  and  _26
REMARK   13  A    between atoms: _26  and  _27
REMARK   14  A    between atoms: _27  and  _28
REMARK   15  A    between atoms: _28  and  _29
REMARK   16  A    between atoms: _38  and  _40
REMARK   17  A    between atoms: _40  and  _41
REMARK   18  A    between atoms: _40  and  _43
REMARK   19  A    between atoms: _43  and  _44
REMARK   20  A    between atoms: _44  and  _45
REMARK   21  A    between atoms: _45  and  _46
REMARK   22  A    between atoms: _46  and  ZN_336
REMARK   23  A    between atoms: _48  and  _50
REMARK   24  A    between atoms: _50  and  _51
REMARK   25  A    between atoms: _50  and  _53
REMARK   26  A    between atoms: _53  and  _54
REMARK   27  A    between atoms: _54  and  _55
REMARK   28  A    between atoms: _55  and  _56
REMARK   29  A    between atoms: _65  and  _67
REMARK   30  A    between atoms: _67  and  _68
REMARK   31  A    between atoms: _67  and  _70
REMARK   32  A    between atoms: _70  and  _71
REMARK   33  A    between atoms: _74  and  _76
REMARK   34  A    between atoms: _76  and  _77
REMARK   35  A    between atoms: _80  and  _82
REMARK   36  A    between atoms: _82  and  _83
REMARK   37  A    between atoms: _82  and  _85
REMARK   38  A    between atoms: _85  and  _86
REMARK   39  A    between atoms: _91  and  _93
REMARK   40  A    between atoms: _93  and  _94
REMARK   41  A    between atoms: _93  and  _96
REMARK   42  A    between atoms: _96  and  _97
REMARK   43  A    between atoms: _97  and  _98
REMARK   44  A    between atoms: _98  and  _99
REMARK   45  A    between atoms: _108  and  _110
REMARK   46  A    between atoms: _110  and  _111
REMARK   47  A    between atoms: _113  and  _115
REMARK   48  A    between atoms: _115  and  _116
REMARK   49  A    between atoms: _115  and  _118
REMARK   50  A    between atoms: _118  and  _119
REMARK   51  A    between atoms: _119  and  _120
REMARK   52  A    between atoms: _123  and  _125
REMARK   53  A    between atoms: _125  and  _126
REMARK   54  A    between atoms: _125  and  _128
REMARK   55  A    between atoms: _128  and  _129
REMARK   56  A    between atoms: _132  and  _134
REMARK   57  A    between atoms: _134  and  _135
REMARK   58  A    between atoms: _134  and  _137
REMARK   59  A    between atoms: _137  and  _138
REMARK   60  A    between atoms: _140  and  _142
REMARK   61  A    between atoms: _142  and  _143
REMARK   62  A    between atoms: _142  and  _145
REMARK   63  A    between atoms: _145  and  _146
REMARK   64  A    between atoms: _149  and  _151
REMARK   65  A    between atoms: _151  and  _152
REMARK   66  A    between atoms: _151  and  _154
REMARK   67  A    between atoms: _154  and  _155
REMARK   68  A    between atoms: _156  and  ZN_336
REMARK   69  A    between atoms: _160  and  _162
REMARK   70  A    between atoms: _162  and  _163
REMARK   71  A    between atoms: _162  and  _165
REMARK   72  A    between atoms: _165  and  _166
REMARK   73  A    between atoms: _168  and  _170
REMARK   74  A    between atoms: _170  and  _171
REMARK   75  A    between atoms: _170  and  _173
REMARK   76  A    between atoms: _173  and  _174
REMARK   77  A    between atoms: _179  and  _180
REMARK   78  A    between atoms: _182  and  _184
REMARK   79  A    between atoms: _184  and  _185
REMARK   80  A    between atoms: _184  and  _187
REMARK   81  A    between atoms: _187  and  _188
REMARK   82  A    between atoms: _190  and  _192
REMARK   83  A    between atoms: _192  and  _193
REMARK   84  A    between atoms: _192  and  _195
REMARK   85  A    between atoms: _195  and  _196
REMARK   86  A    between atoms: _199  and  _201
REMARK   87  A    between atoms: _201  and  _202
REMARK   88  A    between atoms: _201  and  _204
REMARK   89  A    between atoms: _204  and  _205
REMARK   90  A    between atoms: _208  and  _210
REMARK   91  A    between atoms: _210  and  _211
REMARK   92  A    between atoms: _210  and  _213
REMARK   93  A    between atoms: _213  and  _214
REMARK   94  A    between atoms: _217  and  _219
REMARK   95  A    between atoms: _219  and  _220
REMARK   96  A    between atoms: _219  and  _222
REMARK   97  A    between atoms: _222  and  _223
REMARK   98  A    between atoms: _226  and  _228
REMARK   99  A    between atoms: _228  and  _229
REMARK  100  A    between atoms: _228  and  _231
REMARK  101  A    between atoms: _231  and  _232
REMARK  102  A    between atoms: _237  and  _238
REMARK  103  A    between atoms: _240  and  _242
REMARK  104  A    between atoms: _242  and  _243
REMARK  105  A    between atoms: _242  and  _245
REMARK  106  A    between atoms: _245  and  _246
REMARK  107  A    between atoms: _246  and  _247
REMARK  108  A    between atoms: _252  and  _254
REMARK  109  A    between atoms: _254  and  _255
REMARK  110  A    between atoms: _258  and  _260
REMARK  111  A    between atoms: _260  and  _261
REMARK  112  A    between atoms: _260  and  _263
REMARK  113  A    between atoms: _263  and  _264
REMARK  114  A    between atoms: _266  and  _268
REMARK  115  A    between atoms: _268  and  _269
REMARK  116  A    between atoms: _271  and  _273
REMARK  117  A    between atoms: _273  and  _274
REMARK  118  A    between atoms: _276  and  _278
REMARK  119  A    between atoms: _278  and  _279
REMARK  120  A    between atoms: _278  and  _281
REMARK  121  A    between atoms: _281  and  _282
REMARK  122  A    between atoms: _284  and  _286
REMARK  123  A    between atoms: _286  and  _287
REMARK  124  A    between atoms: _286  and  _289
REMARK  125  A    between atoms: _289  and  _290
REMARK  126  A    between atoms: _293  and  _295
REMARK  127  A    between atoms: _295  and  _296
REMARK  128  A    between atoms: _295  and  _298
REMARK  129  A    between atoms: _298  and  _299
REMARK  130  A    between atoms: _305  and  _307
REMARK  131  A    between atoms: _307  and  _308
REMARK  132  A    between atoms: _307  and  _310
REMARK  133  A    between atoms: _310  and  _311
REMARK  134  A    between atoms: _311  and  _312
REMARK  135  A    between atoms: _315  and  _317
REMARK  136  A    between atoms: _317  and  _318
REMARK  137  A    between atoms: _317  and  _320
REMARK  138  A    between atoms: _320  and  _321
REMARK  139  A    between atoms: _324  and  _326
REMARK  140  A    between atoms: _326  and  _327
REMARK  141  A    between atoms: _326  and  _329
REMARK  142  A    between atoms: _329  and  _330
REMARK                            x       y       z     vdW  Elec       q    Type
REMARK                         _______ _______ _______ _____ _____    ______ ____
ROOT
ATOM      1  O   HOH     1      14.753 -11.116  29.914  0.00  0.00    +0.000 OA
ENDROOT
TORSDOF 0
REMARK  Name = ../refined-set-2016/1f57/1f57_pocket.pdb
REMARK  142 active torsions:
REMARK  status: ('A' for Active; 'I' for Inactive)
REMARK    1  A    between atoms: _1  and  _3
REMARK    2  A    between atoms: _3  and  _4
REMARK    3  A    between atoms: _3  and  _6
REMARK    4  A    between atoms: _6  and  _7
REMARK    5  A    between atoms: _10  and  _12
REMARK    6  A    between atoms: _12  and  _13
REMARK    7  A    between atoms: _12  and  _15
REMARK    8  A    between atoms: _15  and  _16
REMARK    9  A    between atoms: _17  and  ZN_336
REMARK   10  A    between atoms: _21  and  _23
REMARK   11  A    between atoms: _23  and  _24
REMARK   12  A    between atoms: _23  and  _26
REMARK   13  A    between atoms: _26  and  _27
REMARK   14  A    between atoms: _27  and  _28
REMARK   15  A    between atoms: _28  and  _29
REMARK   16  A    between atoms: _38  and  _40
REMARK   17  A    between atoms: _40  and  _41
REMARK   18  A    between atoms: _40  and  _43
REMARK   19  A    between atoms: _43  and  _44
REMARK   20  A    between atoms: _44  and  _45
REMARK   21  A    between atoms: _45  and  _46
REMARK   22  A    between atoms: _46  and  ZN_336
REMARK   23  A    between atoms: _48  and  _50
REMARK   24  A    between atoms: _50  and  _51
REMARK   25  A    between atoms: _50  and  _53
REMARK   26  A    between atoms: _53  and  _54
REMARK   27  A    between atoms: _54  and  _55
REMARK   28  A    between atoms: _55  and  _56
REMARK   29  A    between atoms: _65  and  _67
REMARK   30  A    between atoms: _67  and  _68
REMARK   31  A    between atoms: _67  and  _70
REMARK   32  A    between atoms: _70  and  _71
REMARK   33  A    between atoms: _74  and  _76
REMARK   34  A    between atoms: _76  and  _77
REMARK   35  A    between atoms: _80  and  _82
REMARK   36  A    between atoms: _82  and  _83
REMARK   37  A    between atoms: _82  and  _85
REMARK   38  A    between atoms: _85  and  _86
REMARK   39  A    between atoms: _91  and  _93
REMARK   40  A    between atoms: _93  and  _94
REMARK   41  A    between atoms: _93  and  _96
REMARK   42  A    between atoms: _96  and  _97
REMARK   43  A    between atoms: _97  and  _98
REMARK   44  A    between atoms: _98  and  _99
REMARK   45  A    between atoms: _108  and  _110
REMARK   46  A    between atoms: _110  and  _111
REMARK   47  A    between atoms: _113  and  _115
REMARK   48  A    between atoms: _115  and  _116
REMARK   49  A    between atoms: _115  and  _118
REMARK   50  A    between atoms: _118  and  _119
REMARK   51  A    between atoms: _119  and  _120
REMARK   52  A    between atoms: _123  and  _125
REMARK   53  A    between atoms: _125  and  _126
REMARK   54  A    between atoms: _125  and  _128
REMARK   55  A    between atoms: _128  and  _129
REMARK   56  A    between atoms: _132  and  _134
REMARK   57  A    between atoms: _134  and  _135
REMARK   58  A    between atoms: _134  and  _137
REMARK   59  A    between atoms: _137  and  _138
REMARK   60  A    between atoms: _140  and  _142
REMARK   61  A    between atoms: _142  and  _143
REMARK   62  A    between atoms: _142  and  _145
REMARK   63  A    between atoms: _145  and  _146
REMARK   64  A    between atoms: _149  and  _151
REMARK   65  A    between atoms: _151  and  _152
REMARK   66  A    between atoms: _151  and  _154
REMARK   67  A    between atoms: _154  and  _155
REMARK   68  A    between atoms: _156  and  ZN_336
REMARK   69  A    between atoms: _160  and  _162
REMARK   70  A    between atoms: _162  and  _163
REMARK   71  A    between atoms: _162  and  _165
REMARK   72  A    between atoms: _165  and  _166
REMARK   73  A    between atoms: _168  and  _170
REMARK   74  A    between atoms: _170  and  _171
REMARK   75  A    between atoms: _170  and  _173
REMARK   76  A    between atoms: _173  and  _174
REMARK   77  A    between atoms: _179  and  _180
REMARK   78  A    between atoms: _182  and  _184
REMARK   79  A    between atoms: _184  and  _185
REMARK   80  A    between atoms: _184  and  _187
REMARK   81  A    between atoms: _187  and  _188
REMARK   82  A    between atoms: _190  and  _192
REMARK   83  A    between atoms: _192  and  _193
REMARK   84  A    between atoms: _192  and  _195
REMARK   85  A    between atoms: _195  and  _196
REMARK   86  A    between atoms: _199  and  _201
REMARK   87  A    between atoms: _201  and  _202
REMARK   88  A    between atoms: _201  and  _204
REMARK   89  A    between atoms: _204  and  _205
REMARK   90  A    between atoms: _208  and  _210
REMARK   91  A    between atoms: _210  and  _211
REMARK   92  A    between atoms: _210  and  _213
REMARK   93  A    between atoms: _213  and  _214
REMARK   94  A    between atoms: _217  and  _219
REMARK   95  A    between atoms: _219  and  _220
REMARK   96  A    between atoms: _219  and  _222
REMARK   97  A    between atoms: _222  and  _223
REMARK   98  A    between atoms: _226  and  _228
REMARK   99  A    between atoms: _228  and  _229
REMARK  100  A    between atoms: _228  and  _231
REMARK  101  A    between atoms: _231  and  _232
REMARK  102  A    between atoms: _237  and  _238
REMARK  103  A    between atoms: _240  and  _242
REMARK  104  A    between atoms: _242  and  _243
REMARK  105  A    between atoms: _242  and  _245
REMARK  106  A    between atoms: _245  and  _246
REMARK  107  A    between atoms: _246  and  _247
REMARK  108  A    between atoms: _252  and  _254
REMARK  109  A    between atoms: _254  and  _255
REMARK  110  A    between atoms: _258  and  _260
REMARK  111  A    between atoms: _260  and  _261
REMARK  112  A    between atoms: _260  and  _263
REMARK  113  A    between atoms: _263  and  _264
REMARK  114  A    between atoms: _266  and  _268
REMARK  115  A    between atoms: _268  and  _269
REMARK  116  A    between atoms: _271  and  _273
REMARK  117  A    between atoms: _273  and  _274
REMARK  118  A    between atoms: _276  and  _278
REMARK  119  A    between atoms: _278  and  _279
REMARK  120  A    between atoms: _278  and  _281
REMARK  121  A    between atoms: _281  and  _282
REMARK  122  A    between atoms: _284  and  _286
REMARK  123  A    between atoms: _286  and  _287
REMARK  124  A    between atoms: _286  and  _289
REMARK  125  A    between atoms: _289  and  _290
REMARK  126  A    between atoms: _293  and  _295
REMARK  127  A    between atoms: _295  and  _296
REMARK  128  A    between atoms: _295  and  _298
REMARK  129  A    between atoms: _298  and  _299
REMARK  130  A    between atoms: _305  and  _307
REMARK  131  A    between atoms: _307  and  _308
REMARK  132  A    between atoms: _307  and  _310
REMARK  133  A    between atoms: _310  and  _311
REMARK  134  A    between atoms: _311  and  _312
REMARK  135  A    between atoms: _315  and  _317
REMARK  136  A    between atoms: _317  and  _318
REMARK  137  A    between atoms: _317  and  _320
REMARK  138  A    between atoms: _320  and  _321
REMARK  139  A    between atoms: _324  and  _326
REMARK  140  A    between atoms: _326  and  _327
REMARK  141  A    between atoms: _326  and  _329
REMARK  142  A    between atoms: _329  and  _330
REMARK                            x       y       z     vdW  Elec       q    Type
REMARK                         _______ _______ _______ _____ _____    ______ ____
ROOT
ATOM      1  O   HOH     1      14.735 -14.106  22.115  0.00  0.00    +0.000 OA
ENDROOT
TORSDOF 0
REMARK  Name = ../refined-set-2016/1f57/1f57_pocket.pdb
REMARK  142 active torsions:
REMARK  status: ('A' for Active; 'I' for Inactive)
REMARK    1  A    between atoms: _1  and  _3
REMARK    2  A    between atoms: _3  and  _4
REMARK    3  A    between atoms: _3  and  _6
REMARK    4  A    between atoms: _6  and  _7
REMARK    5  A    between atoms: _10  and  _12
REMARK    6  A    between atoms: _12  and  _13
REMARK    7  A    between atoms: _12  and  _15
REMARK    8  A    between atoms: _15  and  _16
REMARK    9  A    between atoms: _17  and  ZN_336
REMARK   10  A    between atoms: _21  and  _23
REMARK   11  A    between atoms: _23  and  _24
REMARK   12  A    between atoms: _23  and  _26
REMARK   13  A    between atoms: _26  and  _27
REMARK   14  A    between atoms: _27  and  _28
REMARK   15  A    between atoms: _28  and  _29
REMARK   16  A    between atoms: _38  and  _40
REMARK   17  A    between atoms: _40  and  _41
REMARK   18  A    between atoms: _40  and  _43
REMARK   19  A    between atoms: _43  and  _44
REMARK   20  A    between atoms: _44  and  _45
REMARK   21  A    between atoms: _45  and  _46
REMARK   22  A    between atoms: _46  and  ZN_336
REMARK   23  A    between atoms: _48  and  _50
REMARK   24  A    between atoms: _50  and  _51
REMARK   25  A    between atoms: _50  and  _53
REMARK   26  A    between atoms: _53  and  _54
REMARK   27  A    between atoms: _54  and  _55
REMARK   28  A    between atoms: _55  and  _56
REMARK   29  A    between atoms: _65  and  _67
REMARK   30  A    between atoms: _67  and  _68
REMARK   31  A    between atoms: _67  and  _70
REMARK   32  A    between atoms: _70  and  _71
REMARK   33  A    between atoms: _74  and  _76
REMARK   34  A    between atoms: _76  and  _77
REMARK   35  A    between atoms: _80  and  _82
REMARK   36  A    between atoms: _82  and  _83
REMARK   37  A    between atoms: _82  and  _85
REMARK   38  A    between atoms: _85  and  _86
REMARK   39  A    between atoms: _91  and  _93
REMARK   40  A    between atoms: _93  and  _94
REMARK   41  A    between atoms: _93  and  _96
REMARK   42  A    between atoms: _96  and  _97
REMARK   43  A    between atoms: _97  and  _98
REMARK   44  A    between atoms: _98  and  _99
REMARK   45  A    between atoms: _108  and  _110
REMARK   46  A    between atoms: _110  and  _111
REMARK   47  A    between atoms: _113  and  _115
REMARK   48  A    between atoms: _115  and  _116
REMARK   49  A    between atoms: _115  and  _118
REMARK   50  A    between atoms: _118  and  _119
REMARK   51  A    between atoms: _119  and  _120
REMARK   52  A    between atoms: _123  and  _125
REMARK   53  A    between atoms: _125  and  _126
REMARK   54  A    between atoms: _125  and  _128
REMARK   55  A    between atoms: _128  and  _129
REMARK   56  A    between atoms: _132  and  _134
REMARK   57  A    between atoms: _134  and  _135
REMARK   58  A    between atoms: _134  and  _137
REMARK   59  A    between atoms: _137  and  _138
REMARK   60  A    between atoms: _140  and  _142
REMARK   61  A    between atoms: _142  and  _143
REMARK   62  A    between atoms: _142  and  _145
REMARK   63  A    between atoms: _145  and  _146
REMARK   64  A    between atoms: _149  and  _151
REMARK   65  A    between atoms: _151  and  _152
REMARK   66  A    between atoms: _151  and  _154
REMARK   67  A    between atoms: _154  and  _155
REMARK   68  A    between atoms: _156  and  ZN_336
REMARK   69  A    between atoms: _160  and  _162
REMARK   70  A    between atoms: _162  and  _163
REMARK   71  A    between atoms: _162  and  _165
REMARK   72  A    between atoms: _165  and  _166
REMARK   73  A    between atoms: _168  and  _170
REMARK   74  A    between atoms: _170  and  _171
REMARK   75  A    between atoms: _170  and  _173
REMARK   76  A    between atoms: _173  and  _174
REMARK   77  A    between atoms: _179  and  _180
REMARK   78  A    between atoms: _182  and  _184
REMARK   79  A    between atoms: _184  and  _185
REMARK   80  A    between atoms: _184  and  _187
REMARK   81  A    between atoms: _187  and  _188
REMARK   82  A    between atoms: _190  and  _192
REMARK   83  A    between atoms: _192  and  _193
REMARK   84  A    between atoms: _192  and  _195
REMARK   85  A    between atoms: _195  and  _196
REMARK   86  A    between atoms: _199  and  _201
REMARK   87  A    between atoms: _201  and  _202
REMARK   88  A    between atoms: _201  and  _204
REMARK   89  A    between atoms: _204  and  _205
REMARK   90  A    between atoms: _208  and  _210
REMARK   91  A    between atoms: _210  and  _211
REMARK   92  A    between atoms: _210  and  _213
REMARK   93  A    between atoms: _213  and  _214
REMARK   94  A    between atoms: _217  and  _219
REMARK   95  A    between atoms: _219  and  _220
REMARK   96  A    between atoms: _219  and  _222
REMARK   97  A    between atoms: _222  and  _223
REMARK   98  A    between atoms: _226  and  _228
REMARK   99  A    between atoms: _228  and  _229
REMARK  100  A    between atoms: _228  and  _231
REMARK  101  A    between atoms: _231  and  _232
REMARK  102  A    between atoms: _237  and  _238
REMARK  103  A    between atoms: _240  and  _242
REMARK  104  A    between atoms: _242  and  _243
REMARK  105  A    between atoms: _242  and  _245
REMARK  106  A    between atoms: _245  and  _246
REMARK  107  A    between atoms: _246  and  _247
REMARK  108  A    between atoms: _252  and  _254
REMARK  109  A    between atoms: _254  and  _255
REMARK  110  A    between atoms: _258  and  _260
REMARK  111  A    between atoms: _260  and  _261
REMARK  112  A    between atoms: _260  and  _263
REMARK  113  A    between atoms: _263  and  _264
REMARK  114  A    between atoms: _266  and  _268
REMARK  115  A    between atoms: _268  and  _269
REMARK  116  A    between atoms: _271  and  _273
REMARK  117  A    between atoms: _273  and  _274
REMARK  118  A    between atoms: _276  and  _278
REMARK  119  A    between atoms: _278  and  _279
REMARK  120  A    between atoms: _278  and  _281
REMARK  121  A    between atoms: _281  and  _282
REMARK  122  A    between atoms: _284  and  _286
REMARK  123  A    between atoms: _286  and  _287
REMARK  124  A    between atoms: _286  and  _289
REMARK  125  A    between atoms: _289  and  _290
REMARK  126  A    between atoms: _293  and  _295
REMARK  127  A    between atoms: _295  and  _296
REMARK  128  A    between atoms: _295  and  _298
REMARK  129  A    between atoms: _298  and  _299
REMARK  130  A    between atoms: _305  and  _307
REMARK  131  A    between atoms: _307  and  _308
REMARK  132  A    between atoms: _307  and  _310
REMARK  133  A    between atoms: _310  and  _311
REMARK  134  A    between atoms: _311  and  _312
REMARK  135  A    between atoms: _315  and  _317
REMARK  136  A    between atoms: _317  and  _318
REMARK  137  A    between atoms: _317  and  _320
REMARK  138  A    between atoms: _320  and  _321
REMARK  139  A    between atoms: _324  and  _326
REMARK  140  A    between atoms: _326  and  _327
REMARK  141  A    between atoms: _326  and  _329
REMARK  142  A    between atoms: _329  and  _330
REMARK                            x       y       z     vdW  Elec       q    Type
REMARK                         _______ _______ _______ _____ _____    ______ ____
ROOT
ATOM      1  O   HOH     1       2.811  -9.301  24.686  0.00  0.00    +0.000 OA
ENDROOT
TORSDOF 0
REMARK  Name = ../refined-set-2016/1f57/1f57_pocket.pdb
REMARK  142 active torsions:
REMARK  status: ('A' for Active; 'I' for Inactive)
REMARK    1  A    between atoms: _1  and  _3
REMARK    2  A    between atoms: _3  and  _4
REMARK    3  A    between atoms: _3  and  _6
REMARK    4  A    between atoms: _6  and  _7
REMARK    5  A    between atoms: _10  and  _12
REMARK    6  A    between atoms: _12  and  _13
REMARK    7  A    between atoms: _12  and  _15
REMARK    8  A    between atoms: _15  and  _16
REMARK    9  A    between atoms: _17  and  ZN_336
REMARK   10  A    between atoms: _21  and  _23
REMARK   11  A    between atoms: _23  and  _24
REMARK   12  A    between atoms: _23  and  _26
REMARK   13  A    between atoms: _26  and  _27
REMARK   14  A    between atoms: _27  and  _28
REMARK   15  A    between atoms: _28  and  _29
REMARK   16  A    between atoms: _38  and  _40
REMARK   17  A    between atoms: _40  and  _41
REMARK   18  A    between atoms: _40  and  _43
REMARK   19  A    between atoms: _43  and  _44
REMARK   20  A    between atoms: _44  and  _45
REMARK   21  A    between atoms: _45  and  _46
REMARK   22  A    between atoms: _46  and  ZN_336
REMARK   23  A    between atoms: _48  and  _50
REMARK   24  A    between atoms: _50  and  _51
REMARK   25  A    between atoms: _50  and  _53
REMARK   26  A    between atoms: _53  and  _54
REMARK   27  A    between atoms: _54  and  _55
REMARK   28  A    between atoms: _55  and  _56
REMARK   29  A    between atoms: _65  and  _67
REMARK   30  A    between atoms: _67  and  _68
REMARK   31  A    between atoms: _67  and  _70
REMARK   32  A    between atoms: _70  and  _71
REMARK   33  A    between atoms: _74  and  _76
REMARK   34  A    between atoms: _76  and  _77
REMARK   35  A    between atoms: _80  and  _82
REMARK   36  A    between atoms: _82  and  _83
REMARK   37  A    between atoms: _82  and  _85
REMARK   38  A    between atoms: _85  and  _86
REMARK   39  A    between atoms: _91  and  _93
REMARK   40  A    between atoms: _93  and  _94
REMARK   41  A    between atoms: _93  and  _96
REMARK   42  A    between atoms: _96  and  _97
REMARK   43  A    between atoms: _97  and  _98
REMARK   44  A    between atoms: _98  and  _99
REMARK   45  A    between atoms: _108  and  _110
REMARK   46  A    between atoms: _110  and  _111
REMARK   47  A    between atoms: _113  and  _115
REMARK   48  A    between atoms: _115  and  _116
REMARK   49  A    between atoms: _115  and  _118
REMARK   50  A    between atoms: _118  and  _119
REMARK   51  A    between atoms: _119  and  _120
REMARK   52  A    between atoms: _123  and  _125
REMARK   53  A    between atoms: _125  and  _126
REMARK   54  A    between atoms: _125  and  _128
REMARK   55  A    between atoms: _128  and  _129
REMARK   56  A    between atoms: _132  and  _134
REMARK   57  A    between atoms: _134  and  _135
REMARK   58  A    between atoms: _134  and  _137
REMARK   59  A    between atoms: _137  and  _138
REMARK   60  A    between atoms: _140  and  _142
REMARK   61  A    between atoms: _142  and  _143
REMARK   62  A    between atoms: _142  and  _145
REMARK   63  A    between atoms: _145  and  _146
REMARK   64  A    between atoms: _149  and  _151
REMARK   65  A    between atoms: _151  and  _152
REMARK   66  A    between atoms: _151  and  _154
REMARK   67  A    between atoms: _154  and  _155
REMARK   68  A    between atoms: _156  and  ZN_336
REMARK   69  A    between atoms: _160  and  _162
REMARK   70  A    between atoms: _162  and  _163
REMARK   71  A    between atoms: _162  and  _165
REMARK   72  A    between atoms: _165  and  _166
REMARK   73  A    between atoms: _168  and  _170
REMARK   74  A    between atoms: _170  and  _171
REMARK   75  A    between atoms: _170  and  _173
REMARK   76  A    between atoms: _173  and  _174
REMARK   77  A    between atoms: _179  and  _180
REMARK   78  A    between atoms: _182  and  _184
REMARK   79  A    between atoms: _184  and  _185
REMARK   80  A    between atoms: _184  and  _187
REMARK   81  A    between atoms: _187  and  _188
REMARK   82  A    between atoms: _190  and  _192
REMARK   83  A    between atoms: _192  and  _193
REMARK   84  A    between atoms: _192  and  _195
REMARK   85  A    between atoms: _195  and  _196
REMARK   86  A    between atoms: _199  and  _201
REMARK   87  A    between atoms: _201  and  _202
REMARK   88  A    between atoms: _201  and  _204
REMARK   89  A    between atoms: _204  and  _205
REMARK   90  A    between atoms: _208  and  _210
REMARK   91  A    between atoms: _210  and  _211
REMARK   92  A    between atoms: _210  and  _213
REMARK   93  A    between atoms: _213  and  _214
REMARK   94  A    between atoms: _217  and  _219
REMARK   95  A    between atoms: _219  and  _220
REMARK   96  A    between atoms: _219  and  _222
REMARK   97  A    between atoms: _222  and  _223
REMARK   98  A    between atoms: _226  and  _228
REMARK   99  A    between atoms: _228  and  _229
REMARK  100  A    between atoms: _228  and  _231
REMARK  101  A    between atoms: _231  and  _232
REMARK  102  A    between atoms: _237  and  _238
REMARK  103  A    between atoms: _240  and  _242
REMARK  104  A    between atoms: _242  and  _243
REMARK  105  A    between atoms: _242  and  _245
REMARK  106  A    between atoms: _245  and  _246
REMARK  107  A    between atoms: _246  and  _247
REMARK  108  A    between atoms: _252  and  _254
REMARK  109  A    between atoms: _254  and  _255
REMARK  110  A    between atoms: _258  and  _260
REMARK  111  A    between atoms: _260  and  _261
REMARK  112  A    between atoms: _260  and  _263
REMARK  113  A    between atoms: _263  and  _264
REMARK  114  A    between atoms: _266  and  _268
REMARK  115  A    between atoms: _268  and  _269
REMARK  116  A    between atoms: _271  and  _273
REMARK  117  A    between atoms: _273  and  _274
REMARK  118  A    between atoms: _276  and  _278
REMARK  119  A    between atoms: _278  and  _279
REMARK  120  A    between atoms: _278  and  _281
REMARK  121  A    between atoms: _281  and  _282
REMARK  122  A    between atoms: _284  and  _286
REMARK  123  A    between atoms: _286  and  _287
REMARK  124  A    between atoms: _286  and  _289
REMARK  125  A    between atoms: _289  and  _290
REMARK  126  A    between atoms: _293  and  _295
REMARK  127  A    between atoms: _295  and  _296
REMARK  128  A    between atoms: _295  and  _298
REMARK  129  A    between atoms: _298  and  _299
REMARK  130  A    between atoms: _305  and  _307
REMARK  131  A    between atoms: _307  and  _308
REMARK  132  A    between atoms: _307  and  _310
REMARK  133  A    between atoms: _310  and  _311
REMARK  134  A    between atoms: _311  and  _312
REMARK  135  A    between atoms: _315  and  _317
REMARK  136  A    between atoms: _317  and  _318
REMARK  137  A    between atoms: _317  and  _320
REMARK  138  A    between atoms: _320  and  _321
REMARK  139  A    between atoms: _324  and  _326
REMARK  140  A    between atoms: _326  and  _327
REMARK  141  A    between atoms: _326  and  _329
REMARK  142  A    between atoms: _329  and  _330
REMARK                            x       y       z     vdW  Elec       q    Type
REMARK                         _______ _______ _______ _____ _____    ______ ____
ROOT
ATOM      1  O   HOH     1       7.346 -11.437  23.998  0.00  0.00    +0.000 OA
ENDROOT
TORSDOF 0
REMARK  Name = ../refined-set-2016/1f57/1f57_pocket.pdb
REMARK  142 active torsions:
REMARK  status: ('A' for Active; 'I' for Inactive)
REMARK    1  A    between atoms: _1  and  _3
REMARK    2  A    between atoms: _3  and  _4
REMARK    3  A    between atoms: _3  and  _6
REMARK    4  A    between atoms: _6  and  _7
REMARK    5  A    between atoms: _10  and  _12
REMARK    6  A    between atoms: _12  and  _13
REMARK    7  A    between atoms: _12  and  _15
REMARK    8  A    between atoms: _15  and  _16
REMARK    9  A    between atoms: _17  and  ZN_336
REMARK   10  A    between atoms: _21  and  _23
REMARK   11  A    between atoms: _23  and  _24
REMARK   12  A    between atoms: _23  and  _26
REMARK   13  A    between atoms: _26  and  _27
REMARK   14  A    between atoms: _27  and  _28
REMARK   15  A    between atoms: _28  and  _29
REMARK   16  A    between atoms: _38  and  _40
REMARK   17  A    between atoms: _40  and  _41
REMARK   18  A    between atoms: _40  and  _43
REMARK   19  A    between atoms: _43  and  _44
REMARK   20  A    between atoms: _44  and  _45
REMARK   21  A    between atoms: _45  and  _46
REMARK   22  A    between atoms: _46  and  ZN_336
REMARK   23  A    between atoms: _48  and  _50
REMARK   24  A    between atoms: _50  and  _51
REMARK   25  A    between atoms: _50  and  _53
REMARK   26  A    between atoms: _53  and  _54
REMARK   27  A    between atoms: _54  and  _55
REMARK   28  A    between atoms: _55  and  _56
REMARK   29  A    between atoms: _65  and  _67
REMARK   30  A    between atoms: _67  and  _68
REMARK   31  A    between atoms: _67  and  _70
REMARK   32  A    between atoms: _70  and  _71
REMARK   33  A    between atoms: _74  and  _76
REMARK   34  A    between atoms: _76  and  _77
REMARK   35  A    between atoms: _80  and  _82
REMARK   36  A    between atoms: _82  and  _83
REMARK   37  A    between atoms: _82  and  _85
REMARK   38  A    between atoms: _85  and  _86
REMARK   39  A    between atoms: _91  and  _93
REMARK   40  A    between atoms: _93  and  _94
REMARK   41  A    between atoms: _93  and  _96
REMARK   42  A    between atoms: _96  and  _97
REMARK   43  A    between atoms: _97  and  _98
REMARK   44  A    between atoms: _98  and  _99
REMARK   45  A    between atoms: _108  and  _110
REMARK   46  A    between atoms: _110  and  _111
REMARK   47  A    between atoms: _113  and  _115
REMARK   48  A    between atoms: _115  and  _116
REMARK   49  A    between atoms: _115  and  _118
REMARK   50  A    between atoms: _118  and  _119
REMARK   51  A    between atoms: _119  and  _120
REMARK   52  A    between atoms: _123  and  _125
REMARK   53  A    between atoms: _125  and  _126
REMARK   54  A    between atoms: _125  and  _128
REMARK   55  A    between atoms: _128  and  _129
REMARK   56  A    between atoms: _132  and  _134
REMARK   57  A    between atoms: _134  and  _135
REMARK   58  A    between atoms: _134  and  _137
REMARK   59  A    between atoms: _137  and  _138
REMARK   60  A    between atoms: _140  and  _142
REMARK   61  A    between atoms: _142  and  _143
REMARK   62  A    between atoms: _142  and  _145
REMARK   63  A    between atoms: _145  and  _146
REMARK   64  A    between atoms: _149  and  _151
REMARK   65  A    between atoms: _151  and  _152
REMARK   66  A    between atoms: _151  and  _154
REMARK   67  A    between atoms: _154  and  _155
REMARK   68  A    between atoms: _156  and  ZN_336
REMARK   69  A    between atoms: _160  and  _162
REMARK   70  A    between atoms: _162  and  _163
REMARK   71  A    between atoms: _162  and  _165
REMARK   72  A    between atoms: _165  and  _166
REMARK   73  A    between atoms: _168  and  _170
REMARK   74  A    between atoms: _170  and  _171
REMARK   75  A    between atoms: _170  and  _173
REMARK   76  A    between atoms: _173  and  _174
REMARK   77  A    between atoms: _179  and  _180
REMARK   78  A    between atoms: _182  and  _184
REMARK   79  A    between atoms: _184  and  _185
REMARK   80  A    between atoms: _184  and  _187
REMARK   81  A    between atoms: _187  and  _188
REMARK   82  A    between atoms: _190  and  _192
REMARK   83  A    between atoms: _192  and  _193
REMARK   84  A    between atoms: _192  and  _195
REMARK   85  A    between atoms: _195  and  _196
REMARK   86  A    between atoms: _199  and  _201
REMARK   87  A    between atoms: _201  and  _202
REMARK   88  A    between atoms: _201  and  _204
REMARK   89  A    between atoms: _204  and  _205
REMARK   90  A    between atoms: _208  and  _210
REMARK   91  A    between atoms: _210  and  _211
REMARK   92  A    between atoms: _210  and  _213
REMARK   93  A    between atoms: _213  and  _214
REMARK   94  A    between atoms: _217  and  _219
REMARK   95  A    between atoms: _219  and  _220
REMARK   96  A    between atoms: _219  and  _222
REMARK   97  A    between atoms: _222  and  _223
REMARK   98  A    between atoms: _226  and  _228
REMARK   99  A    between atoms: _228  and  _229
REMARK  100  A    between atoms: _228  and  _231
REMARK  101  A    between atoms: _231  and  _232
REMARK  102  A    between atoms: _237  and  _238
REMARK  103  A    between atoms: _240  and  _242
REMARK  104  A    between atoms: _242  and  _243
REMARK  105  A    between atoms: _242  and  _245
REMARK  106  A    between atoms: _245  and  _246
REMARK  107  A    between atoms: _246  and  _247
REMARK  108  A    between atoms: _252  and  _254
REMARK  109  A    between atoms: _254  and  _255
REMARK  110  A    between atoms: _258  and  _260
REMARK  111  A    between atoms: _260  and  _261
REMARK  112  A    between atoms: _260  and  _263
REMARK  113  A    between atoms: _263  and  _264
REMARK  114  A    between atoms: _266  and  _268
REMARK  115  A    between atoms: _268  and  _269
REMARK  116  A    between atoms: _271  and  _273
REMARK  117  A    between atoms: _273  and  _274
REMARK  118  A    between atoms: _276  and  _278
REMARK  119  A    between atoms: _278  and  _279
REMARK  120  A    between atoms: _278  and  _281
REMARK  121  A    between atoms: _281  and  _282
REMARK  122  A    between atoms: _284  and  _286
REMARK  123  A    between atoms: _286  and  _287
REMARK  124  A    between atoms: _286  and  _289
REMARK  125  A    between atoms: _289  and  _290
REMARK  126  A    between atoms: _293  and  _295
REMARK  127  A    between atoms: _295  and  _296
REMARK  128  A    between atoms: _295  and  _298
REMARK  129  A    between atoms: _298  and  _299
REMARK  130  A    between atoms: _305  and  _307
REMARK  131  A    between atoms: _307  and  _308
REMARK  132  A    between atoms: _307  and  _310
REMARK  133  A    between atoms: _310  and  _311
REMARK  134  A    between atoms: _311  and  _312
REMARK  135  A    between atoms: _315  and  _317
REMARK  136  A    between atoms: _317  and  _318
REMARK  137  A    between atoms: _317  and  _320
REMARK  138  A    between atoms: _320  and  _321
REMARK  139  A    between atoms: _324  and  _326
REMARK  140  A    between atoms: _326  and  _327
REMARK  141  A    between atoms: _326  and  _329
REMARK  142  A    between atoms: _329  and  _330
REMARK                            x       y       z     vdW  Elec       q    Type
REMARK                         _______ _______ _______ _____ _____    ______ ____
ROOT
ATOM      1  O   HOH     1       9.885 -13.384  25.076  0.00  0.00    +0.000 OA
ENDROOT
TORSDOF 0
