REMARK  Name = ../refined-set-2016/4aia/4aia_pocket.pdb
REMARK  117 active torsions:
REMARK  status: ('A' for Active; 'I' for Inactive)
REMARK    1  A    between atoms: _1  and  _3
REMARK    2  A    between atoms: _3  and  _4
REMARK    3  A    between atoms: _3  and  _6
REMARK    4  A    between atoms: _8  and  _10
REMARK    5  A    between atoms: _10  and  _11
REMARK    6  A    between atoms: _14  and  _16
REMARK    7  A    between atoms: _16  and  _17
REMARK    8  A    between atoms: _16  and  _19
REMARK    9  A    between atoms: _19  and  _20
REMARK   10  A    between atoms: _26  and  _28
REMARK   11  A    between atoms: _28  and  _29
REMARK   12  A    between atoms: _28  and  _31
REMARK   13  A    between atoms: _31  and  _32
REMARK   14  A    between atoms: _37  and  _38
REMARK   15  A    between atoms: _40  and  _42
REMARK   16  A    between atoms: _42  and  _43
REMARK   17  A    between atoms: _42  and  _45
REMARK   18  A    between atoms: _45  and  _46
REMARK   19  A    between atoms: _51  and  _52
REMARK   20  A    between atoms: _54  and  _56
REMARK   21  A    between atoms: _56  and  _57
REMARK   22  A    between atoms: _56  and  _59
REMARK   23  A    between atoms: _59  and  _60
REMARK   24  A    between atoms: _65  and  _67
REMARK   25  A    between atoms: _67  and  _68
REMARK   26  A    between atoms: _67  and  _70
REMARK   27  A    between atoms: _73  and  _75
REMARK   28  A    between atoms: _75  and  _76
REMARK   29  A    between atoms: _75  and  _78
REMARK   30  A    between atoms: _78  and  _79
REMARK   31  A    between atoms: _89  and  _91
REMARK   32  A    between atoms: _91  and  _92
REMARK   33  A    between atoms: _94  and  _96
REMARK   34  A    between atoms: _96  and  _97
REMARK   35  A    between atoms: _96  and  _99
REMARK   36  A    between atoms: _99  and  _100
REMARK   37  A    between atoms: _103  and  _105
REMARK   38  A    between atoms: _105  and  _106
REMARK   39  A    between atoms: _105  and  _108
REMARK   40  A    between atoms: _108  and  _109
REMARK   41  A    between atoms: _112  and  _114
REMARK   42  A    between atoms: _114  and  _115
REMARK   43  A    between atoms: _114  and  _117
REMARK   44  A    between atoms: _117  and  _118
REMARK   45  A    between atoms: _118  and  _119
REMARK   46  A    between atoms: _122  and  _124
REMARK   47  A    between atoms: _124  and  _125
REMARK   48  A    between atoms: _124  and  _127
REMARK   49  A    between atoms: _127  and  _128
REMARK   50  A    between atoms: _130  and  _132
REMARK   51  A    between atoms: _132  and  _133
REMARK   52  A    between atoms: _132  and  _135
REMARK   53  A    between atoms: _135  and  _136
REMARK   54  A    between atoms: _141  and  _143
REMARK   55  A    between atoms: _143  and  _144
REMARK   56  A    between atoms: _147  and  _149
REMARK   57  A    between atoms: _149  and  _150
REMARK   58  A    between atoms: _149  and  _152
REMARK   59  A    between atoms: _152  and  _153
REMARK   60  A    between atoms: _156  and  _158
REMARK   61  A    between atoms: _158  and  _159
REMARK   62  A    between atoms: _158  and  _161
REMARK   63  A    between atoms: _161  and  _162
REMARK   64  A    between atoms: _164  and  _166
REMARK   65  A    between atoms: _166  and  _167
REMARK   66  A    between atoms: _166  and  _169
REMARK   67  A    between atoms: _169  and  _170
REMARK   68  A    between atoms: _180  and  _182
REMARK   69  A    between atoms: _182  and  _183
REMARK   70  A    between atoms: _182  and  _185
REMARK   71  A    between atoms: _185  and  _186
REMARK   72  A    between atoms: _189  and  _191
REMARK   73  A    between atoms: _191  and  _192
REMARK   74  A    between atoms: _191  and  _194
REMARK   75  A    between atoms: _194  and  _195
REMARK   76  A    between atoms: _198  and  _200
REMARK   77  A    between atoms: _200  and  _201
REMARK   78  A    between atoms: _200  and  _203
REMARK   79  A    between atoms: _203  and  _204
REMARK   80  A    between atoms: _207  and  _209
REMARK   81  A    between atoms: _209  and  _210
REMARK   82  A    between atoms: _209  and  _212
REMARK   83  A    between atoms: _212  and  _213
REMARK   84  A    between atoms: _213  and  _214
REMARK   85  A    between atoms: _214  and  _215
REMARK   86  A    between atoms: _224  and  _226
REMARK   87  A    between atoms: _226  and  _227
REMARK   88  A    between atoms: _226  and  _229
REMARK   89  A    between atoms: _232  and  _234
REMARK   90  A    between atoms: _234  and  _235
REMARK   91  A    between atoms: _234  and  _237
REMARK   92  A    between atoms: _237  and  _238
REMARK   93  A    between atoms: _241  and  _243
REMARK   94  A    between atoms: _243  and  _244
REMARK   95  A    between atoms: _243  and  _246
REMARK   96  A    between atoms: _246  and  _247
REMARK   97  A    between atoms: _253  and  _255
REMARK   98  A    between atoms: _255  and  _256
REMARK   99  A    between atoms: _255  and  _258
REMARK  100  A    between atoms: _258  and  _259
REMARK  101  A    between atoms: _261  and  _263
REMARK  102  A    between atoms: _263  and  _264
REMARK  103  A    between atoms: _263  and  _266
REMARK  104  A    between atoms: _266  and  _267
REMARK  105  A    between atoms: _273  and  _275
REMARK  106  A    between atoms: _275  and  _276
REMARK  107  A    between atoms: _275  and  _278
REMARK  108  A    between atoms: _278  and  _279
REMARK  109  A    between atoms: _282  and  _284
REMARK  110  A    between atoms: _284  and  _285
REMARK  111  A    between atoms: _284  and  _287
REMARK  112  A    between atoms: _287  and  _288
REMARK  113  A    between atoms: _288  and  _289
REMARK  114  A    between atoms: _292  and  _294
REMARK  115  A    between atoms: _294  and  _295
REMARK  116  A    between atoms: _298  and  _300
REMARK  117  A    between atoms: _300  and  _301
REMARK                            x       y       z     vdW  Elec       q    Type
REMARK                         _______ _______ _______ _____ _____    ______ ____
ROOT
ATOM      1  C   ALA A   2      30.771 -30.108   1.142  0.00  0.00    +0.241 C 
ATOM      2  O   ALA A   2      30.517 -30.269   2.335  0.00  0.00    -0.273 OA
ATOM      3  N   PHE A   3      31.920 -29.607   0.694  0.00  0.00    -0.298 N 
ATOM      4  H   PHE A   3      32.081 -29.603  -0.333  0.00  0.00    +0.150 HD
ENDROOT
BRANCH   1   5
ATOM      5  CA  ALA A   2      29.715 -30.447   0.090  0.00  0.00    +0.149 C 
ATOM      6  CB  ALA A   2      28.701 -31.449   0.654  0.00  0.00    +0.031 C 
BRANCH   5   8
ATOM      7  C   CYS A   1      30.486 -30.207  -2.230  0.00  0.00    +0.239 C 
ATOM      8  N   ALA A   2      30.290 -30.963  -1.146  0.00  0.00    -0.297 N 
ATOM      9  H   ALA A   2      30.560 -31.966  -1.186  0.00  0.00    +0.150 HD
ATOM     10  O   CYS A   1      30.439 -28.978  -2.227  0.00  0.00    -0.274 OA
BRANCH   7  11
ATOM     11  CA  CYS A   1      30.825 -30.949  -3.511  0.00  0.00    +0.156 C 
BRANCH  11  12
ATOM     12  N   CYS A   1      31.702 -32.086  -3.259  0.00  0.00    -0.237 NA
ATOM     13  H   CYS A   1      31.312 -33.050  -3.271  0.00  0.00    +0.142 HD
ENDBRANCH  11  12
BRANCH  11  14
ATOM     14  CB  CYS A   1      29.546 -31.419  -4.223  0.00  0.00    +0.095 C 
ATOM     15  SG  CYS A   1      28.501 -30.052  -4.798  0.00  0.00    -0.080 S 
ENDBRANCH  11  14
ENDBRANCH   7  11
ENDBRANCH   5   8
ENDBRANCH   1   5
BRANCH   3  16
ATOM     16  CA  PHE A   3      32.979 -29.057   1.559  0.00  0.00    +0.141 C 
BRANCH  16  17
ATOM     17  C   PHE A   3      33.499 -30.101   2.559  0.00  0.00    +0.227 C 
ATOM     18  O   PHE A   3      33.860 -29.786   3.703  0.00  0.00    -0.286 OA
ENDBRANCH  16  17
BRANCH  16  19
ATOM     19  CB  PHE A   3      32.501 -27.736   2.190  0.00  0.00    +0.054 C 
BRANCH  19  20
ATOM     20  CG  PHE A   3      31.835 -26.808   1.188  0.00  0.00    -0.020 A 
ATOM     21  CD2 PHE A   3      30.448 -26.816   1.022  0.00  0.00    -0.004 A 
ATOM     22  CE2 PHE A   3      29.838 -26.017   0.073  0.00  0.00    -0.000 A 
ATOM     23  CZ  PHE A   3      30.619 -25.198  -0.750  0.00  0.00    -0.000 A 
ATOM     24  CE1 PHE A   3      32.001 -25.196  -0.608  0.00  0.00    -0.000 A 
ATOM     25  CD1 PHE A   3      32.602 -26.014   0.348  0.00  0.00    -0.004 A 
ENDBRANCH  19  20
ENDBRANCH  16  19
ENDBRANCH   3  16
TORSDOF 9
REMARK  Name = ../refined-set-2016/4aia/4aia_pocket.pdb
REMARK  117 active torsions:
REMARK  status: ('A' for Active; 'I' for Inactive)
REMARK    1  A    between atoms: _1  and  _3
REMARK    2  A    between atoms: _3  and  _4
REMARK    3  A    between atoms: _3  and  _6
REMARK    4  A    between atoms: _8  and  _10
REMARK    5  A    between atoms: _10  and  _11
REMARK    6  A    between atoms: _14  and  _16
REMARK    7  A    between atoms: _16  and  _17
REMARK    8  A    between atoms: _16  and  _19
REMARK    9  A    between atoms: _19  and  _20
REMARK   10  A    between atoms: _26  and  _28
REMARK   11  A    between atoms: _28  and  _29
REMARK   12  A    between atoms: _28  and  _31
REMARK   13  A    between atoms: _31  and  _32
REMARK   14  A    between atoms: _37  and  _38
REMARK   15  A    between atoms: _40  and  _42
REMARK   16  A    between atoms: _42  and  _43
REMARK   17  A    between atoms: _42  and  _45
REMARK   18  A    between atoms: _45  and  _46
REMARK   19  A    between atoms: _51  and  _52
REMARK   20  A    between atoms: _54  and  _56
REMARK   21  A    between atoms: _56  and  _57
REMARK   22  A    between atoms: _56  and  _59
REMARK   23  A    between atoms: _59  and  _60
REMARK   24  A    between atoms: _65  and  _67
REMARK   25  A    between atoms: _67  and  _68
REMARK   26  A    between atoms: _67  and  _70
REMARK   27  A    between atoms: _73  and  _75
REMARK   28  A    between atoms: _75  and  _76
REMARK   29  A    between atoms: _75  and  _78
REMARK   30  A    between atoms: _78  and  _79
REMARK   31  A    between atoms: _89  and  _91
REMARK   32  A    between atoms: _91  and  _92
REMARK   33  A    between atoms: _94  and  _96
REMARK   34  A    between atoms: _96  and  _97
REMARK   35  A    between atoms: _96  and  _99
REMARK   36  A    between atoms: _99  and  _100
REMARK   37  A    between atoms: _103  and  _105
REMARK   38  A    between atoms: _105  and  _106
REMARK   39  A    between atoms: _105  and  _108
REMARK   40  A    between atoms: _108  and  _109
REMARK   41  A    between atoms: _112  and  _114
REMARK   42  A    between atoms: _114  and  _115
REMARK   43  A    between atoms: _114  and  _117
REMARK   44  A    between atoms: _117  and  _118
REMARK   45  A    between atoms: _118  and  _119
REMARK   46  A    between atoms: _122  and  _124
REMARK   47  A    between atoms: _124  and  _125
REMARK   48  A    between atoms: _124  and  _127
REMARK   49  A    between atoms: _127  and  _128
REMARK   50  A    between atoms: _130  and  _132
REMARK   51  A    between atoms: _132  and  _133
REMARK   52  A    between atoms: _132  and  _135
REMARK   53  A    between atoms: _135  and  _136
REMARK   54  A    between atoms: _141  and  _143
REMARK   55  A    between atoms: _143  and  _144
REMARK   56  A    between atoms: _147  and  _149
REMARK   57  A    between atoms: _149  and  _150
REMARK   58  A    between atoms: _149  and  _152
REMARK   59  A    between atoms: _152  and  _153
REMARK   60  A    between atoms: _156  and  _158
REMARK   61  A    between atoms: _158  and  _159
REMARK   62  A    between atoms: _158  and  _161
REMARK   63  A    between atoms: _161  and  _162
REMARK   64  A    between atoms: _164  and  _166
REMARK   65  A    between atoms: _166  and  _167
REMARK   66  A    between atoms: _166  and  _169
REMARK   67  A    between atoms: _169  and  _170
REMARK   68  A    between atoms: _180  and  _182
REMARK   69  A    between atoms: _182  and  _183
REMARK   70  A    between atoms: _182  and  _185
REMARK   71  A    between atoms: _185  and  _186
REMARK   72  A    between atoms: _189  and  _191
REMARK   73  A    between atoms: _191  and  _192
REMARK   74  A    between atoms: _191  and  _194
REMARK   75  A    between atoms: _194  and  _195
REMARK   76  A    between atoms: _198  and  _200
REMARK   77  A    between atoms: _200  and  _201
REMARK   78  A    between atoms: _200  and  _203
REMARK   79  A    between atoms: _203  and  _204
REMARK   80  A    between atoms: _207  and  _209
REMARK   81  A    between atoms: _209  and  _210
REMARK   82  A    between atoms: _209  and  _212
REMARK   83  A    between atoms: _212  and  _213
REMARK   84  A    between atoms: _213  and  _214
REMARK   85  A    between atoms: _214  and  _215
REMARK   86  A    between atoms: _224  and  _226
REMARK   87  A    between atoms: _226  and  _227
REMARK   88  A    between atoms: _226  and  _229
REMARK   89  A    between atoms: _232  and  _234
REMARK   90  A    between atoms: _234  and  _235
REMARK   91  A    between atoms: _234  and  _237
REMARK   92  A    between atoms: _237  and  _238
REMARK   93  A    between atoms: _241  and  _243
REMARK   94  A    between atoms: _243  and  _244
REMARK   95  A    between atoms: _243  and  _246
REMARK   96  A    between atoms: _246  and  _247
REMARK   97  A    between atoms: _253  and  _255
REMARK   98  A    between atoms: _255  and  _256
REMARK   99  A    between atoms: _255  and  _258
REMARK  100  A    between atoms: _258  and  _259
REMARK  101  A    between atoms: _261  and  _263
REMARK  102  A    between atoms: _263  and  _264
REMARK  103  A    between atoms: _263  and  _266
REMARK  104  A    between atoms: _266  and  _267
REMARK  105  A    between atoms: _273  and  _275
REMARK  106  A    between atoms: _275  and  _276
REMARK  107  A    between atoms: _275  and  _278
REMARK  108  A    between atoms: _278  and  _279
REMARK  109  A    between atoms: _282  and  _284
REMARK  110  A    between atoms: _284  and  _285
REMARK  111  A    between atoms: _284  and  _287
REMARK  112  A    between atoms: _287  and  _288
REMARK  113  A    between atoms: _288  and  _289
REMARK  114  A    between atoms: _292  and  _294
REMARK  115  A    between atoms: _294  and  _295
REMARK  116  A    between atoms: _298  and  _300
REMARK  117  A    between atoms: _300  and  _301
REMARK                            x       y       z     vdW  Elec       q    Type
REMARK                         _______ _______ _______ _____ _____    ______ ____
ROOT
ATOM      1  CG  TYR A   1      27.604 -28.212   6.195  0.00  0.00    -0.020 A 
ATOM      2  CD2 TYR A   1      28.979 -28.071   6.295  0.00  0.00    -0.001 A 
ATOM      3  CE2 TYR A   1      29.667 -27.086   5.604  0.00  0.00    +0.036 A 
ATOM      4  CZ  TYR A   1      28.974 -26.200   4.788  0.00  0.00    +0.134 A 
ATOM      5  CE1 TYR A   1      27.604 -26.286   4.692  0.00  0.00    +0.036 A 
ATOM      6  CD1 TYR A   1      26.914 -27.292   5.393  0.00  0.00    -0.001 A 
ENDROOT
BRANCH   4   7
ATOM      7  OH  TYR A   1      29.685 -25.213   4.114  0.00  0.00    -0.506 OA
ATOM      8  HH  TYR A   1      30.151 -24.637   4.771  0.00  0.00    +0.292 HD
ENDBRANCH   4   7
BRANCH   1   9
ATOM      9  CB  TYR A   1      26.887 -29.294   6.995  0.00  0.00    +0.051 C 
BRANCH   9  10
ATOM     10  CA  TYR A   1      25.360 -29.337   6.858  0.00  0.00    +0.137 C 
BRANCH  10  11
ATOM     11  N   TYR A   1      24.773 -29.979   8.012  0.00  0.00    -0.239 NA
ATOM     12  H   TYR A   1      25.366 -30.572   8.627  0.00  0.00    +0.142 HD
ENDBRANCH  10  11
BRANCH  10  13
ATOM     13  C   TYR A   1      24.919 -30.101   5.611  0.00  0.00    +0.224 C 
ATOM     14  O   TYR A   1      24.601 -29.491   4.604  0.00  0.00    -0.287 OA
ENDBRANCH  10  13
ENDBRANCH   9  10
ENDBRANCH   1   9
TORSDOF 5
REMARK  Name = ../refined-set-2016/4aia/4aia_pocket.pdb
REMARK  117 active torsions:
REMARK  status: ('A' for Active; 'I' for Inactive)
REMARK    1  A    between atoms: _1  and  _3
REMARK    2  A    between atoms: _3  and  _4
REMARK    3  A    between atoms: _3  and  _6
REMARK    4  A    between atoms: _8  and  _10
REMARK    5  A    between atoms: _10  and  _11
REMARK    6  A    between atoms: _14  and  _16
REMARK    7  A    between atoms: _16  and  _17
REMARK    8  A    between atoms: _16  and  _19
REMARK    9  A    between atoms: _19  and  _20
REMARK   10  A    between atoms: _26  and  _28
REMARK   11  A    between atoms: _28  and  _29
REMARK   12  A    between atoms: _28  and  _31
REMARK   13  A    between atoms: _31  and  _32
REMARK   14  A    between atoms: _37  and  _38
REMARK   15  A    between atoms: _40  and  _42
REMARK   16  A    between atoms: _42  and  _43
REMARK   17  A    between atoms: _42  and  _45
REMARK   18  A    between atoms: _45  and  _46
REMARK   19  A    between atoms: _51  and  _52
REMARK   20  A    between atoms: _54  and  _56
REMARK   21  A    between atoms: _56  and  _57
REMARK   22  A    between atoms: _56  and  _59
REMARK   23  A    between atoms: _59  and  _60
REMARK   24  A    between atoms: _65  and  _67
REMARK   25  A    between atoms: _67  and  _68
REMARK   26  A    between atoms: _67  and  _70
REMARK   27  A    between atoms: _73  and  _75
REMARK   28  A    between atoms: _75  and  _76
REMARK   29  A    between atoms: _75  and  _78
REMARK   30  A    between atoms: _78  and  _79
REMARK   31  A    between atoms: _89  and  _91
REMARK   32  A    between atoms: _91  and  _92
REMARK   33  A    between atoms: _94  and  _96
REMARK   34  A    between atoms: _96  and  _97
REMARK   35  A    between atoms: _96  and  _99
REMARK   36  A    between atoms: _99  and  _100
REMARK   37  A    between atoms: _103  and  _105
REMARK   38  A    between atoms: _105  and  _106
REMARK   39  A    between atoms: _105  and  _108
REMARK   40  A    between atoms: _108  and  _109
REMARK   41  A    between atoms: _112  and  _114
REMARK   42  A    between atoms: _114  and  _115
REMARK   43  A    between atoms: _114  and  _117
REMARK   44  A    between atoms: _117  and  _118
REMARK   45  A    between atoms: _118  and  _119
REMARK   46  A    between atoms: _122  and  _124
REMARK   47  A    between atoms: _124  and  _125
REMARK   48  A    between atoms: _124  and  _127
REMARK   49  A    between atoms: _127  and  _128
REMARK   50  A    between atoms: _130  and  _132
REMARK   51  A    between atoms: _132  and  _133
REMARK   52  A    between atoms: _132  and  _135
REMARK   53  A    between atoms: _135  and  _136
REMARK   54  A    between atoms: _141  and  _143
REMARK   55  A    between atoms: _143  and  _144
REMARK   56  A    between atoms: _147  and  _149
REMARK   57  A    between atoms: _149  and  _150
REMARK   58  A    between atoms: _149  and  _152
REMARK   59  A    between atoms: _152  and  _153
REMARK   60  A    between atoms: _156  and  _158
REMARK   61  A    between atoms: _158  and  _159
REMARK   62  A    between atoms: _158  and  _161
REMARK   63  A    between atoms: _161  and  _162
REMARK   64  A    between atoms: _164  and  _166
REMARK   65  A    between atoms: _166  and  _167
REMARK   66  A    between atoms: _166  and  _169
REMARK   67  A    between atoms: _169  and  _170
REMARK   68  A    between atoms: _180  and  _182
REMARK   69  A    between atoms: _182  and  _183
REMARK   70  A    between atoms: _182  and  _185
REMARK   71  A    between atoms: _185  and  _186
REMARK   72  A    between atoms: _189  and  _191
REMARK   73  A    between atoms: _191  and  _192
REMARK   74  A    between atoms: _191  and  _194
REMARK   75  A    between atoms: _194  and  _195
REMARK   76  A    between atoms: _198  and  _200
REMARK   77  A    between atoms: _200  and  _201
REMARK   78  A    between atoms: _200  and  _203
REMARK   79  A    between atoms: _203  and  _204
REMARK   80  A    between atoms: _207  and  _209
REMARK   81  A    between atoms: _209  and  _210
REMARK   82  A    between atoms: _209  and  _212
REMARK   83  A    between atoms: _212  and  _213
REMARK   84  A    between atoms: _213  and  _214
REMARK   85  A    between atoms: _214  and  _215
REMARK   86  A    between atoms: _224  and  _226
REMARK   87  A    between atoms: _226  and  _227
REMARK   88  A    between atoms: _226  and  _229
REMARK   89  A    between atoms: _232  and  _234
REMARK   90  A    between atoms: _234  and  _235
REMARK   91  A    between atoms: _234  and  _237
REMARK   92  A    between atoms: _237  and  _238
REMARK   93  A    between atoms: _241  and  _243
REMARK   94  A    between atoms: _243  and  _244
REMARK   95  A    between atoms: _243  and  _246
REMARK   96  A    between atoms: _246  and  _247
REMARK   97  A    between atoms: _253  and  _255
REMARK   98  A    between atoms: _255  and  _256
REMARK   99  A    between atoms: _255  and  _258
REMARK  100  A    between atoms: _258  and  _259
REMARK  101  A    between atoms: _261  and  _263
REMARK  102  A    between atoms: _263  and  _264
REMARK  103  A    between atoms: _263  and  _266
REMARK  104  A    between atoms: _266  and  _267
REMARK  105  A    between atoms: _273  and  _275
REMARK  106  A    between atoms: _275  and  _276
REMARK  107  A    between atoms: _275  and  _278
REMARK  108  A    between atoms: _278  and  _279
REMARK  109  A    between atoms: _282  and  _284
REMARK  110  A    between atoms: _284  and  _285
REMARK  111  A    between atoms: _284  and  _287
REMARK  112  A    between atoms: _287  and  _288
REMARK  113  A    between atoms: _288  and  _289
REMARK  114  A    between atoms: _292  and  _294
REMARK  115  A    between atoms: _294  and  _295
REMARK  116  A    between atoms: _298  and  _300
REMARK  117  A    between atoms: _300  and  _301
REMARK                            x       y       z     vdW  Elec       q    Type
REMARK                         _______ _______ _______ _____ _____    ______ ____
ROOT
ATOM      1  C   TYR A   1      21.904 -28.023   2.631  0.00  0.00    +0.239 C 
ATOM      2  N   HIS A   2      22.956 -28.822   2.406  0.00  0.00    -0.298 N 
ATOM      3  H   HIS A   2      23.419 -29.296   3.208  0.00  0.00    +0.150 HD
ATOM      4  O   TYR A   1      21.317 -27.439   1.730  0.00  0.00    -0.274 OA
ENDROOT
BRANCH   1   5
ATOM      5  CA  TYR A   1      21.433 -27.867   4.088  0.00  0.00    +0.149 C 
BRANCH   5   6
ATOM      6  N   TYR A   1      21.311 -29.176   4.714  0.00  0.00    -0.238 NA
ATOM      7  H   TYR A   1      21.837 -29.352   5.594  0.00  0.00    +0.142 HD
ENDBRANCH   5   6
BRANCH   5   8
ATOM      8  CB  TYR A   1      22.393 -26.973   4.889  0.00  0.00    +0.053 C 
BRANCH   8   9
ATOM      9  CG  TYR A   1      22.720 -25.661   4.228  0.00  0.00    -0.020 A 
ATOM     10  CD2 TYR A   1      21.811 -24.596   4.269  0.00  0.00    -0.001 A 
ATOM     11  CE2 TYR A   1      22.114 -23.367   3.665  0.00  0.00    +0.036 A 
ATOM     12  CZ  TYR A   1      23.326 -23.219   3.022  0.00  0.00    +0.134 A 
ATOM     13  CE1 TYR A   1      24.235 -24.277   2.953  0.00  0.00    +0.036 A 
ATOM     14  CD1 TYR A   1      23.934 -25.474   3.570  0.00  0.00    -0.001 A 
BRANCH  12  15
ATOM     15  OH  TYR A   1      23.654 -22.040   2.396  0.00  0.00    -0.506 OA
ATOM     16  HH  TYR A   1      22.924 -21.384   2.526  0.00  0.00    +0.292 HD
ENDBRANCH  12  15
ENDBRANCH   8   9
ENDBRANCH   5   8
ENDBRANCH   1   5
BRANCH   2  17
ATOM     17  CA  HIS A   2      23.470 -29.042   1.037  0.00  0.00    +0.143 C 
BRANCH  17  18
ATOM     18  C   HIS A   2      22.407 -29.603   0.107  0.00  0.00    +0.227 C 
ATOM     19  O   HIS A   2      22.283 -29.177  -1.054  0.00  0.00    -0.286 OA
ENDBRANCH  17  18
BRANCH  17  20
ATOM     20  CB  HIS A   2      24.666 -30.033   1.061  0.00  0.00    +0.075 C 
BRANCH  20  21
ATOM     21  CG  HIS A   2      25.437 -30.055  -0.237  0.00  0.00    +0.082 A 
ATOM     22  ND1 HIS A   2      26.347 -29.103  -0.546  0.00  0.00    -0.227 NA
ATOM     23  CE1 HIS A   2      26.858 -29.341  -1.774  0.00  0.00    +0.199 A 
ATOM     24  NE2 HIS A   2      26.263 -30.450  -2.267  0.00  0.00    -0.221 NA
ATOM     25  CD2 HIS A   2      25.374 -30.916  -1.334  0.00  0.00    +0.115 A 
ENDBRANCH  20  21
ENDBRANCH  17  20
ENDBRANCH   2  17
TORSDOF 9
REMARK  Name = ../refined-set-2016/4aia/4aia_pocket.pdb
REMARK  117 active torsions:
REMARK  status: ('A' for Active; 'I' for Inactive)
REMARK    1  A    between atoms: _1  and  _3
REMARK    2  A    between atoms: _3  and  _4
REMARK    3  A    between atoms: _3  and  _6
REMARK    4  A    between atoms: _8  and  _10
REMARK    5  A    between atoms: _10  and  _11
REMARK    6  A    between atoms: _14  and  _16
REMARK    7  A    between atoms: _16  and  _17
REMARK    8  A    between atoms: _16  and  _19
REMARK    9  A    between atoms: _19  and  _20
REMARK   10  A    between atoms: _26  and  _28
REMARK   11  A    between atoms: _28  and  _29
REMARK   12  A    between atoms: _28  and  _31
REMARK   13  A    between atoms: _31  and  _32
REMARK   14  A    between atoms: _37  and  _38
REMARK   15  A    between atoms: _40  and  _42
REMARK   16  A    between atoms: _42  and  _43
REMARK   17  A    between atoms: _42  and  _45
REMARK   18  A    between atoms: _45  and  _46
REMARK   19  A    between atoms: _51  and  _52
REMARK   20  A    between atoms: _54  and  _56
REMARK   21  A    between atoms: _56  and  _57
REMARK   22  A    between atoms: _56  and  _59
REMARK   23  A    between atoms: _59  and  _60
REMARK   24  A    between atoms: _65  and  _67
REMARK   25  A    between atoms: _67  and  _68
REMARK   26  A    between atoms: _67  and  _70
REMARK   27  A    between atoms: _73  and  _75
REMARK   28  A    between atoms: _75  and  _76
REMARK   29  A    between atoms: _75  and  _78
REMARK   30  A    between atoms: _78  and  _79
REMARK   31  A    between atoms: _89  and  _91
REMARK   32  A    between atoms: _91  and  _92
REMARK   33  A    between atoms: _94  and  _96
REMARK   34  A    between atoms: _96  and  _97
REMARK   35  A    between atoms: _96  and  _99
REMARK   36  A    between atoms: _99  and  _100
REMARK   37  A    between atoms: _103  and  _105
REMARK   38  A    between atoms: _105  and  _106
REMARK   39  A    between atoms: _105  and  _108
REMARK   40  A    between atoms: _108  and  _109
REMARK   41  A    between atoms: _112  and  _114
REMARK   42  A    between atoms: _114  and  _115
REMARK   43  A    between atoms: _114  and  _117
REMARK   44  A    between atoms: _117  and  _118
REMARK   45  A    between atoms: _118  and  _119
REMARK   46  A    between atoms: _122  and  _124
REMARK   47  A    between atoms: _124  and  _125
REMARK   48  A    between atoms: _124  and  _127
REMARK   49  A    between atoms: _127  and  _128
REMARK   50  A    between atoms: _130  and  _132
REMARK   51  A    between atoms: _132  and  _133
REMARK   52  A    between atoms: _132  and  _135
REMARK   53  A    between atoms: _135  and  _136
REMARK   54  A    between atoms: _141  and  _143
REMARK   55  A    between atoms: _143  and  _144
REMARK   56  A    between atoms: _147  and  _149
REMARK   57  A    between atoms: _149  and  _150
REMARK   58  A    between atoms: _149  and  _152
REMARK   59  A    between atoms: _152  and  _153
REMARK   60  A    between atoms: _156  and  _158
REMARK   61  A    between atoms: _158  and  _159
REMARK   62  A    between atoms: _158  and  _161
REMARK   63  A    between atoms: _161  and  _162
REMARK   64  A    between atoms: _164  and  _166
REMARK   65  A    between atoms: _166  and  _167
REMARK   66  A    between atoms: _166  and  _169
REMARK   67  A    between atoms: _169  and  _170
REMARK   68  A    between atoms: _180  and  _182
REMARK   69  A    between atoms: _182  and  _183
REMARK   70  A    between atoms: _182  and  _185
REMARK   71  A    between atoms: _185  and  _186
REMARK   72  A    between atoms: _189  and  _191
REMARK   73  A    between atoms: _191  and  _192
REMARK   74  A    between atoms: _191  and  _194
REMARK   75  A    between atoms: _194  and  _195
REMARK   76  A    between atoms: _198  and  _200
REMARK   77  A    between atoms: _200  and  _201
REMARK   78  A    between atoms: _200  and  _203
REMARK   79  A    between atoms: _203  and  _204
REMARK   80  A    between atoms: _207  and  _209
REMARK   81  A    between atoms: _209  and  _210
REMARK   82  A    between atoms: _209  and  _212
REMARK   83  A    between atoms: _212  and  _213
REMARK   84  A    between atoms: _213  and  _214
REMARK   85  A    between atoms: _214  and  _215
REMARK   86  A    between atoms: _224  and  _226
REMARK   87  A    between atoms: _226  and  _227
REMARK   88  A    between atoms: _226  and  _229
REMARK   89  A    between atoms: _232  and  _234
REMARK   90  A    between atoms: _234  and  _235
REMARK   91  A    between atoms: _234  and  _237
REMARK   92  A    between atoms: _237  and  _238
REMARK   93  A    between atoms: _241  and  _243
REMARK   94  A    between atoms: _243  and  _244
REMARK   95  A    between atoms: _243  and  _246
REMARK   96  A    between atoms: _246  and  _247
REMARK   97  A    between atoms: _253  and  _255
REMARK   98  A    between atoms: _255  and  _256
REMARK   99  A    between atoms: _255  and  _258
REMARK  100  A    between atoms: _258  and  _259
REMARK  101  A    between atoms: _261  and  _263
REMARK  102  A    between atoms: _263  and  _264
REMARK  103  A    between atoms: _263  and  _266
REMARK  104  A    between atoms: _266  and  _267
REMARK  105  A    between atoms: _273  and  _275
REMARK  106  A    between atoms: _275  and  _276
REMARK  107  A    between atoms: _275  and  _278
REMARK  108  A    between atoms: _278  and  _279
REMARK  109  A    between atoms: _282  and  _284
REMARK  110  A    between atoms: _284  and  _285
REMARK  111  A    between atoms: _284  and  _287
REMARK  112  A    between atoms: _287  and  _288
REMARK  113  A    between atoms: _288  and  _289
REMARK  114  A    between atoms: _292  and  _294
REMARK  115  A    between atoms: _294  and  _295
REMARK  116  A    between atoms: _298  and  _300
REMARK  117  A    between atoms: _300  and  _301
REMARK                            x       y       z     vdW  Elec       q    Type
REMARK                         _______ _______ _______ _____ _____    ______ ____
ROOT
ATOM      1  CA  TRP A   2      22.173 -24.818  -1.064  0.00  0.00    +0.153 C 
ENDROOT
BRANCH   1   3
ATOM      2  C   VAL A   1      19.807 -25.058  -0.526  0.00  0.00    +0.238 C 
ATOM      3  N   TRP A   2      21.072 -25.387  -0.278  0.00  0.00    -0.297 N 
ATOM      4  H   TRP A   2      21.284 -26.059   0.486  0.00  0.00    +0.150 HD
ATOM      5  O   VAL A   1      19.473 -24.439  -1.518  0.00  0.00    -0.274 OA
BRANCH   2   6
ATOM      6  CA  VAL A   1      18.752 -25.484   0.492  0.00  0.00    +0.145 C 
BRANCH   6   7
ATOM      7  CB  VAL A   1      19.056 -24.776   1.824  0.00  0.00    +0.025 C 
ATOM      8  CG2 VAL A   1      18.051 -25.179   2.884  0.00  0.00    +0.002 C 
ATOM      9  CG1 VAL A   1      19.123 -23.258   1.640  0.00  0.00    +0.002 C 
ENDBRANCH   6   7
BRANCH   6  10
ATOM     10  N   VAL A   1      18.715 -26.949   0.646  0.00  0.00    -0.238 NA
ATOM     11  H   VAL A   1      19.579 -27.459   0.921  0.00  0.00    +0.142 HD
ENDBRANCH   6  10
ENDBRANCH   2   6
ENDBRANCH   1   3
BRANCH   1  12
ATOM     12  C   TRP A   2      22.041 -25.142  -2.545  0.00  0.00    +0.241 C 
ATOM     13  O   TRP A   2      21.909 -26.308  -2.940  0.00  0.00    -0.273 OA
ATOM     14  N   GLY A   3      21.977 -24.099  -3.368  0.00  0.00    -0.296 N 
ATOM     15  H   GLY A   3      21.997 -23.139  -2.968  0.00  0.00    +0.150 HD
BRANCH  14  16
ATOM     16  CA  GLY A   3      21.880 -24.261  -4.815  0.00  0.00    +0.163 C 
BRANCH  16  17
ATOM     17  C   GLY A   3      20.505 -24.671  -5.334  0.00  0.00    +0.229 C 
ATOM     18  O   GLY A   3      20.359 -24.907  -6.522  0.00  0.00    -0.286 OA
ENDBRANCH  16  17
ENDBRANCH  14  16
ENDBRANCH   1  12
BRANCH   1  19
ATOM     19  CB  TRP A   2      23.501 -25.307  -0.504  0.00  0.00    +0.057 C 
BRANCH  19  20
ATOM     20  CG  TRP A   2      24.680 -24.531  -1.004  0.00  0.00    -0.002 A 
ATOM     21  CD1 TRP A   2      25.095 -23.248  -0.596  0.00  0.00    +0.068 A 
ATOM     22  NE1 TRP A   2      26.221 -22.866  -1.278  0.00  0.00    -0.352 N 
ATOM     23  HE1 TRP A   2      26.701 -21.950  -1.170  0.00  0.00    +0.166 HD
ATOM     24  CE2 TRP A   2      26.621 -23.867  -2.123  0.00  0.00    +0.056 A 
ATOM     25  CZ2 TRP A   2      27.695 -23.939  -2.997  0.00  0.00    +0.017 A 
ATOM     26  CH2 TRP A   2      27.835 -25.119  -3.747  0.00  0.00    +0.001 A 
ATOM     27  CZ3 TRP A   2      26.907 -26.178  -3.646  0.00  0.00    +0.000 A 
ATOM     28  CE3 TRP A   2      25.819 -26.114  -2.768  0.00  0.00    +0.001 A 
ATOM     29  CD2 TRP A   2      25.646 -24.959  -1.997  0.00  0.00    +0.013 A 
ENDBRANCH  19  20
ENDBRANCH   1  19
TORSDOF 9
REMARK  Name = ../refined-set-2016/4aia/4aia_pocket.pdb
REMARK  117 active torsions:
REMARK  status: ('A' for Active; 'I' for Inactive)
REMARK    1  A    between atoms: _1  and  _3
REMARK    2  A    between atoms: _3  and  _4
REMARK    3  A    between atoms: _3  and  _6
REMARK    4  A    between atoms: _8  and  _10
REMARK    5  A    between atoms: _10  and  _11
REMARK    6  A    between atoms: _14  and  _16
REMARK    7  A    between atoms: _16  and  _17
REMARK    8  A    between atoms: _16  and  _19
REMARK    9  A    between atoms: _19  and  _20
REMARK   10  A    between atoms: _26  and  _28
REMARK   11  A    between atoms: _28  and  _29
REMARK   12  A    between atoms: _28  and  _31
REMARK   13  A    between atoms: _31  and  _32
REMARK   14  A    between atoms: _37  and  _38
REMARK   15  A    between atoms: _40  and  _42
REMARK   16  A    between atoms: _42  and  _43
REMARK   17  A    between atoms: _42  and  _45
REMARK   18  A    between atoms: _45  and  _46
REMARK   19  A    between atoms: _51  and  _52
REMARK   20  A    between atoms: _54  and  _56
REMARK   21  A    between atoms: _56  and  _57
REMARK   22  A    between atoms: _56  and  _59
REMARK   23  A    between atoms: _59  and  _60
REMARK   24  A    between atoms: _65  and  _67
REMARK   25  A    between atoms: _67  and  _68
REMARK   26  A    between atoms: _67  and  _70
REMARK   27  A    between atoms: _73  and  _75
REMARK   28  A    between atoms: _75  and  _76
REMARK   29  A    between atoms: _75  and  _78
REMARK   30  A    between atoms: _78  and  _79
REMARK   31  A    between atoms: _89  and  _91
REMARK   32  A    between atoms: _91  and  _92
REMARK   33  A    between atoms: _94  and  _96
REMARK   34  A    between atoms: _96  and  _97
REMARK   35  A    between atoms: _96  and  _99
REMARK   36  A    between atoms: _99  and  _100
REMARK   37  A    between atoms: _103  and  _105
REMARK   38  A    between atoms: _105  and  _106
REMARK   39  A    between atoms: _105  and  _108
REMARK   40  A    between atoms: _108  and  _109
REMARK   41  A    between atoms: _112  and  _114
REMARK   42  A    between atoms: _114  and  _115
REMARK   43  A    between atoms: _114  and  _117
REMARK   44  A    between atoms: _117  and  _118
REMARK   45  A    between atoms: _118  and  _119
REMARK   46  A    between atoms: _122  and  _124
REMARK   47  A    between atoms: _124  and  _125
REMARK   48  A    between atoms: _124  and  _127
REMARK   49  A    between atoms: _127  and  _128
REMARK   50  A    between atoms: _130  and  _132
REMARK   51  A    between atoms: _132  and  _133
REMARK   52  A    between atoms: _132  and  _135
REMARK   53  A    between atoms: _135  and  _136
REMARK   54  A    between atoms: _141  and  _143
REMARK   55  A    between atoms: _143  and  _144
REMARK   56  A    between atoms: _147  and  _149
REMARK   57  A    between atoms: _149  and  _150
REMARK   58  A    between atoms: _149  and  _152
REMARK   59  A    between atoms: _152  and  _153
REMARK   60  A    between atoms: _156  and  _158
REMARK   61  A    between atoms: _158  and  _159
REMARK   62  A    between atoms: _158  and  _161
REMARK   63  A    between atoms: _161  and  _162
REMARK   64  A    between atoms: _164  and  _166
REMARK   65  A    between atoms: _166  and  _167
REMARK   66  A    between atoms: _166  and  _169
REMARK   67  A    between atoms: _169  and  _170
REMARK   68  A    between atoms: _180  and  _182
REMARK   69  A    between atoms: _182  and  _183
REMARK   70  A    between atoms: _182  and  _185
REMARK   71  A    between atoms: _185  and  _186
REMARK   72  A    between atoms: _189  and  _191
REMARK   73  A    between atoms: _191  and  _192
REMARK   74  A    between atoms: _191  and  _194
REMARK   75  A    between atoms: _194  and  _195
REMARK   76  A    between atoms: _198  and  _200
REMARK   77  A    between atoms: _200  and  _201
REMARK   78  A    between atoms: _200  and  _203
REMARK   79  A    between atoms: _203  and  _204
REMARK   80  A    between atoms: _207  and  _209
REMARK   81  A    between atoms: _209  and  _210
REMARK   82  A    between atoms: _209  and  _212
REMARK   83  A    between atoms: _212  and  _213
REMARK   84  A    between atoms: _213  and  _214
REMARK   85  A    between atoms: _214  and  _215
REMARK   86  A    between atoms: _224  and  _226
REMARK   87  A    between atoms: _226  and  _227
REMARK   88  A    between atoms: _226  and  _229
REMARK   89  A    between atoms: _232  and  _234
REMARK   90  A    between atoms: _234  and  _235
REMARK   91  A    between atoms: _234  and  _237
REMARK   92  A    between atoms: _237  and  _238
REMARK   93  A    between atoms: _241  and  _243
REMARK   94  A    between atoms: _243  and  _244
REMARK   95  A    between atoms: _243  and  _246
REMARK   96  A    between atoms: _246  and  _247
REMARK   97  A    between atoms: _253  and  _255
REMARK   98  A    between atoms: _255  and  _256
REMARK   99  A    between atoms: _255  and  _258
REMARK  100  A    between atoms: _258  and  _259
REMARK  101  A    between atoms: _261  and  _263
REMARK  102  A    between atoms: _263  and  _264
REMARK  103  A    between atoms: _263  and  _266
REMARK  104  A    between atoms: _266  and  _267
REMARK  105  A    between atoms: _273  and  _275
REMARK  106  A    between atoms: _275  and  _276
REMARK  107  A    between atoms: _275  and  _278
REMARK  108  A    between atoms: _278  and  _279
REMARK  109  A    between atoms: _282  and  _284
REMARK  110  A    between atoms: _284  and  _285
REMARK  111  A    between atoms: _284  and  _287
REMARK  112  A    between atoms: _287  and  _288
REMARK  113  A    between atoms: _288  and  _289
REMARK  114  A    between atoms: _292  and  _294
REMARK  115  A    between atoms: _294  and  _295
REMARK  116  A    between atoms: _298  and  _300
REMARK  117  A    between atoms: _300  and  _301
REMARK                            x       y       z     vdW  Elec       q    Type
REMARK                         _______ _______ _______ _____ _____    ______ ____
ROOT
ATOM      1  CA  LEU A   1      19.569 -16.276   3.278  0.00  0.00    +0.133 C 
ENDROOT
BRANCH   1   2
ATOM      2  N   LEU A   1      18.280 -15.688   3.670  0.00  0.00    -0.239 NA
ATOM      3  H   LEU A   1      17.455 -15.771   3.042  0.00  0.00    +0.142 HD
ENDBRANCH   1   2
BRANCH   1   4
ATOM      4  C   LEU A   1      20.606 -15.179   3.133  0.00  0.00    +0.224 C 
ATOM      5  O   LEU A   1      21.763 -15.355   3.537  0.00  0.00    -0.287 OA
ENDBRANCH   1   4
BRANCH   1   6
ATOM      6  CB  LEU A   1      19.466 -17.033   1.945  0.00  0.00    +0.025 C 
BRANCH   6   7
ATOM      7  CG  LEU A   1      18.563 -18.267   1.889  0.00  0.00    +0.002 C 
ATOM      8  CD2 LEU A   1      18.850 -19.207   3.037  0.00  0.00    +0.000 C 
ATOM      9  CD1 LEU A   1      18.836 -18.969   0.551  0.00  0.00    +0.000 C 
ENDBRANCH   6   7
ENDBRANCH   1   6
TORSDOF 4
REMARK  Name = ../refined-set-2016/4aia/4aia_pocket.pdb
REMARK  117 active torsions:
REMARK  status: ('A' for Active; 'I' for Inactive)
REMARK    1  A    between atoms: _1  and  _3
REMARK    2  A    between atoms: _3  and  _4
REMARK    3  A    between atoms: _3  and  _6
REMARK    4  A    between atoms: _8  and  _10
REMARK    5  A    between atoms: _10  and  _11
REMARK    6  A    between atoms: _14  and  _16
REMARK    7  A    between atoms: _16  and  _17
REMARK    8  A    between atoms: _16  and  _19
REMARK    9  A    between atoms: _19  and  _20
REMARK   10  A    between atoms: _26  and  _28
REMARK   11  A    between atoms: _28  and  _29
REMARK   12  A    between atoms: _28  and  _31
REMARK   13  A    between atoms: _31  and  _32
REMARK   14  A    between atoms: _37  and  _38
REMARK   15  A    between atoms: _40  and  _42
REMARK   16  A    between atoms: _42  and  _43
REMARK   17  A    between atoms: _42  and  _45
REMARK   18  A    between atoms: _45  and  _46
REMARK   19  A    between atoms: _51  and  _52
REMARK   20  A    between atoms: _54  and  _56
REMARK   21  A    between atoms: _56  and  _57
REMARK   22  A    between atoms: _56  and  _59
REMARK   23  A    between atoms: _59  and  _60
REMARK   24  A    between atoms: _65  and  _67
REMARK   25  A    between atoms: _67  and  _68
REMARK   26  A    between atoms: _67  and  _70
REMARK   27  A    between atoms: _73  and  _75
REMARK   28  A    between atoms: _75  and  _76
REMARK   29  A    between atoms: _75  and  _78
REMARK   30  A    between atoms: _78  and  _79
REMARK   31  A    between atoms: _89  and  _91
REMARK   32  A    between atoms: _91  and  _92
REMARK   33  A    between atoms: _94  and  _96
REMARK   34  A    between atoms: _96  and  _97
REMARK   35  A    between atoms: _96  and  _99
REMARK   36  A    between atoms: _99  and  _100
REMARK   37  A    between atoms: _103  and  _105
REMARK   38  A    between atoms: _105  and  _106
REMARK   39  A    between atoms: _105  and  _108
REMARK   40  A    between atoms: _108  and  _109
REMARK   41  A    between atoms: _112  and  _114
REMARK   42  A    between atoms: _114  and  _115
REMARK   43  A    between atoms: _114  and  _117
REMARK   44  A    between atoms: _117  and  _118
REMARK   45  A    between atoms: _118  and  _119
REMARK   46  A    between atoms: _122  and  _124
REMARK   47  A    between atoms: _124  and  _125
REMARK   48  A    between atoms: _124  and  _127
REMARK   49  A    between atoms: _127  and  _128
REMARK   50  A    between atoms: _130  and  _132
REMARK   51  A    between atoms: _132  and  _133
REMARK   52  A    between atoms: _132  and  _135
REMARK   53  A    between atoms: _135  and  _136
REMARK   54  A    between atoms: _141  and  _143
REMARK   55  A    between atoms: _143  and  _144
REMARK   56  A    between atoms: _147  and  _149
REMARK   57  A    between atoms: _149  and  _150
REMARK   58  A    between atoms: _149  and  _152
REMARK   59  A    between atoms: _152  and  _153
REMARK   60  A    between atoms: _156  and  _158
REMARK   61  A    between atoms: _158  and  _159
REMARK   62  A    between atoms: _158  and  _161
REMARK   63  A    between atoms: _161  and  _162
REMARK   64  A    between atoms: _164  and  _166
REMARK   65  A    between atoms: _166  and  _167
REMARK   66  A    between atoms: _166  and  _169
REMARK   67  A    between atoms: _169  and  _170
REMARK   68  A    between atoms: _180  and  _182
REMARK   69  A    between atoms: _182  and  _183
REMARK   70  A    between atoms: _182  and  _185
REMARK   71  A    between atoms: _185  and  _186
REMARK   72  A    between atoms: _189  and  _191
REMARK   73  A    between atoms: _191  and  _192
REMARK   74  A    between atoms: _191  and  _194
REMARK   75  A    between atoms: _194  and  _195
REMARK   76  A    between atoms: _198  and  _200
REMARK   77  A    between atoms: _200  and  _201
REMARK   78  A    between atoms: _200  and  _203
REMARK   79  A    between atoms: _203  and  _204
REMARK   80  A    between atoms: _207  and  _209
REMARK   81  A    between atoms: _209  and  _210
REMARK   82  A    between atoms: _209  and  _212
REMARK   83  A    between atoms: _212  and  _213
REMARK   84  A    between atoms: _213  and  _214
REMARK   85  A    between atoms: _214  and  _215
REMARK   86  A    between atoms: _224  and  _226
REMARK   87  A    between atoms: _226  and  _227
REMARK   88  A    between atoms: _226  and  _229
REMARK   89  A    between atoms: _232  and  _234
REMARK   90  A    between atoms: _234  and  _235
REMARK   91  A    between atoms: _234  and  _237
REMARK   92  A    between atoms: _237  and  _238
REMARK   93  A    between atoms: _241  and  _243
REMARK   94  A    between atoms: _243  and  _244
REMARK   95  A    between atoms: _243  and  _246
REMARK   96  A    between atoms: _246  and  _247
REMARK   97  A    between atoms: _253  and  _255
REMARK   98  A    between atoms: _255  and  _256
REMARK   99  A    between atoms: _255  and  _258
REMARK  100  A    between atoms: _258  and  _259
REMARK  101  A    between atoms: _261  and  _263
REMARK  102  A    between atoms: _263  and  _264
REMARK  103  A    between atoms: _263  and  _266
REMARK  104  A    between atoms: _266  and  _267
REMARK  105  A    between atoms: _273  and  _275
REMARK  106  A    between atoms: _275  and  _276
REMARK  107  A    between atoms: _275  and  _278
REMARK  108  A    between atoms: _278  and  _279
REMARK  109  A    between atoms: _282  and  _284
REMARK  110  A    between atoms: _284  and  _285
REMARK  111  A    between atoms: _284  and  _287
REMARK  112  A    between atoms: _287  and  _288
REMARK  113  A    between atoms: _288  and  _289
REMARK  114  A    between atoms: _292  and  _294
REMARK  115  A    between atoms: _294  and  _295
REMARK  116  A    between atoms: _298  and  _300
REMARK  117  A    between atoms: _300  and  _301
REMARK                            x       y       z     vdW  Elec       q    Type
REMARK                         _______ _______ _______ _____ _____    ______ ____
ROOT
ATOM      1  CA  GLU A   2      25.458 -14.666   4.529  0.00  0.00    +0.149 C 
ENDROOT
BRANCH   1   4
ATOM      2  C   LEU A   1      24.082 -14.874   6.545  0.00  0.00    +0.238 C 
ATOM      3  O   LEU A   1      25.099 -14.923   7.256  0.00  0.00    -0.274 OA
ATOM      4  N   GLU A   2      24.155 -14.771   5.214  0.00  0.00    -0.297 N 
ATOM      5  H   GLU A   2      23.280 -14.765   4.652  0.00  0.00    +0.150 HD
BRANCH   2   6
ATOM      6  CA  LEU A   1      22.673 -14.881   7.193  0.00  0.00    +0.145 C 
BRANCH   6   7
ATOM      7  N   LEU A   1      21.774 -13.893   6.581  0.00  0.00    -0.238 NA
ATOM      8  H   LEU A   1      20.902 -14.211   6.112  0.00  0.00    +0.142 HD
ENDBRANCH   6   7
BRANCH   6   9
ATOM      9  CB  LEU A   1      22.039 -16.274   7.171  0.00  0.00    +0.026 C 
BRANCH   9  10
ATOM     10  CG  LEU A   1      20.880 -16.491   8.147  0.00  0.00    +0.002 C 
ATOM     11  CD2 LEU A   1      21.319 -16.418   9.616  0.00  0.00    +0.000 C 
ATOM     12  CD1 LEU A   1      20.199 -17.822   7.866  0.00  0.00    +0.000 C 
ENDBRANCH   9  10
ENDBRANCH   6   9
ENDBRANCH   2   6
ENDBRANCH   1   4
BRANCH   1  13
ATOM     13  C   GLU A   2      26.282 -13.476   5.019  0.00  0.00    +0.241 C 
ATOM     14  N   SER A   3      25.613 -12.369   5.322  0.00  0.00    -0.296 N 
ATOM     15  H   SER A   3      24.577 -12.362   5.226  0.00  0.00    +0.150 HD
ATOM     16  O   GLU A   2      27.498 -13.578   5.166  0.00  0.00    -0.273 OA
BRANCH  14  17
ATOM     17  CA  SER A   3      26.294 -11.155   5.789  0.00  0.00    +0.166 C 
BRANCH  17  18
ATOM     18  C   SER A   3      26.981 -11.315   7.164  0.00  0.00    +0.229 C 
ATOM     19  O   SER A   3      27.821 -10.508   7.552  0.00  0.00    -0.286 OA
ENDBRANCH  17  18
BRANCH  17  20
ATOM     20  CB  SER A   3      25.297  -9.975   5.852  0.00  0.00    +0.165 C 
BRANCH  20  21
ATOM     21  OG  SER A   3      24.468 -10.038   7.018  0.00  0.00    -0.380 OA
ATOM     22  H   SER A   3      23.950 -10.882   7.008  0.00  0.00    +0.211 HD
ENDBRANCH  20  21
ENDBRANCH  17  20
ENDBRANCH  14  17
ENDBRANCH   1  13
BRANCH   1  23
ATOM     23  CB  GLU A   2      25.326 -14.603   2.992  0.00  0.00    +0.041 C 
BRANCH  23  24
ATOM     24  CG  GLU A   2      24.675 -15.840   2.349  0.00  0.00    +0.116 C 
BRANCH  24  25
ATOM     25  CD  GLU A   2      25.577 -17.070   2.376  0.00  0.00    +0.365 C 
ATOM     26  OE2 GLU A   2      26.804 -16.945   2.517  0.00  0.00    -0.246 OA
ATOM     27  OE1 GLU A   2      25.043 -18.184   2.249  0.00  0.00    -0.246 OA
ENDBRANCH  24  25
ENDBRANCH  23  24
ENDBRANCH   1  23
TORSDOF 13
REMARK  Name = ../refined-set-2016/4aia/4aia_pocket.pdb
REMARK  117 active torsions:
REMARK  status: ('A' for Active; 'I' for Inactive)
REMARK    1  A    between atoms: _1  and  _3
REMARK    2  A    between atoms: _3  and  _4
REMARK    3  A    between atoms: _3  and  _6
REMARK    4  A    between atoms: _8  and  _10
REMARK    5  A    between atoms: _10  and  _11
REMARK    6  A    between atoms: _14  and  _16
REMARK    7  A    between atoms: _16  and  _17
REMARK    8  A    between atoms: _16  and  _19
REMARK    9  A    between atoms: _19  and  _20
REMARK   10  A    between atoms: _26  and  _28
REMARK   11  A    between atoms: _28  and  _29
REMARK   12  A    between atoms: _28  and  _31
REMARK   13  A    between atoms: _31  and  _32
REMARK   14  A    between atoms: _37  and  _38
REMARK   15  A    between atoms: _40  and  _42
REMARK   16  A    between atoms: _42  and  _43
REMARK   17  A    between atoms: _42  and  _45
REMARK   18  A    between atoms: _45  and  _46
REMARK   19  A    between atoms: _51  and  _52
REMARK   20  A    between atoms: _54  and  _56
REMARK   21  A    between atoms: _56  and  _57
REMARK   22  A    between atoms: _56  and  _59
REMARK   23  A    between atoms: _59  and  _60
REMARK   24  A    between atoms: _65  and  _67
REMARK   25  A    between atoms: _67  and  _68
REMARK   26  A    between atoms: _67  and  _70
REMARK   27  A    between atoms: _73  and  _75
REMARK   28  A    between atoms: _75  and  _76
REMARK   29  A    between atoms: _75  and  _78
REMARK   30  A    between atoms: _78  and  _79
REMARK   31  A    between atoms: _89  and  _91
REMARK   32  A    between atoms: _91  and  _92
REMARK   33  A    between atoms: _94  and  _96
REMARK   34  A    between atoms: _96  and  _97
REMARK   35  A    between atoms: _96  and  _99
REMARK   36  A    between atoms: _99  and  _100
REMARK   37  A    between atoms: _103  and  _105
REMARK   38  A    between atoms: _105  and  _106
REMARK   39  A    between atoms: _105  and  _108
REMARK   40  A    between atoms: _108  and  _109
REMARK   41  A    between atoms: _112  and  _114
REMARK   42  A    between atoms: _114  and  _115
REMARK   43  A    between atoms: _114  and  _117
REMARK   44  A    between atoms: _117  and  _118
REMARK   45  A    between atoms: _118  and  _119
REMARK   46  A    between atoms: _122  and  _124
REMARK   47  A    between atoms: _124  and  _125
REMARK   48  A    between atoms: _124  and  _127
REMARK   49  A    between atoms: _127  and  _128
REMARK   50  A    between atoms: _130  and  _132
REMARK   51  A    between atoms: _132  and  _133
REMARK   52  A    between atoms: _132  and  _135
REMARK   53  A    between atoms: _135  and  _136
REMARK   54  A    between atoms: _141  and  _143
REMARK   55  A    between atoms: _143  and  _144
REMARK   56  A    between atoms: _147  and  _149
REMARK   57  A    between atoms: _149  and  _150
REMARK   58  A    between atoms: _149  and  _152
REMARK   59  A    between atoms: _152  and  _153
REMARK   60  A    between atoms: _156  and  _158
REMARK   61  A    between atoms: _158  and  _159
REMARK   62  A    between atoms: _158  and  _161
REMARK   63  A    between atoms: _161  and  _162
REMARK   64  A    between atoms: _164  and  _166
REMARK   65  A    between atoms: _166  and  _167
REMARK   66  A    between atoms: _166  and  _169
REMARK   67  A    between atoms: _169  and  _170
REMARK   68  A    between atoms: _180  and  _182
REMARK   69  A    between atoms: _182  and  _183
REMARK   70  A    between atoms: _182  and  _185
REMARK   71  A    between atoms: _185  and  _186
REMARK   72  A    between atoms: _189  and  _191
REMARK   73  A    between atoms: _191  and  _192
REMARK   74  A    between atoms: _191  and  _194
REMARK   75  A    between atoms: _194  and  _195
REMARK   76  A    between atoms: _198  and  _200
REMARK   77  A    between atoms: _200  and  _201
REMARK   78  A    between atoms: _200  and  _203
REMARK   79  A    between atoms: _203  and  _204
REMARK   80  A    between atoms: _207  and  _209
REMARK   81  A    between atoms: _209  and  _210
REMARK   82  A    between atoms: _209  and  _212
REMARK   83  A    between atoms: _212  and  _213
REMARK   84  A    between atoms: _213  and  _214
REMARK   85  A    between atoms: _214  and  _215
REMARK   86  A    between atoms: _224  and  _226
REMARK   87  A    between atoms: _226  and  _227
REMARK   88  A    between atoms: _226  and  _229
REMARK   89  A    between atoms: _232  and  _234
REMARK   90  A    between atoms: _234  and  _235
REMARK   91  A    between atoms: _234  and  _237
REMARK   92  A    between atoms: _237  and  _238
REMARK   93  A    between atoms: _241  and  _243
REMARK   94  A    between atoms: _243  and  _244
REMARK   95  A    between atoms: _243  and  _246
REMARK   96  A    between atoms: _246  and  _247
REMARK   97  A    between atoms: _253  and  _255
REMARK   98  A    between atoms: _255  and  _256
REMARK   99  A    between atoms: _255  and  _258
REMARK  100  A    between atoms: _258  and  _259
REMARK  101  A    between atoms: _261  and  _263
REMARK  102  A    between atoms: _263  and  _264
REMARK  103  A    between atoms: _263  and  _266
REMARK  104  A    between atoms: _266  and  _267
REMARK  105  A    between atoms: _273  and  _275
REMARK  106  A    between atoms: _275  and  _276
REMARK  107  A    between atoms: _275  and  _278
REMARK  108  A    between atoms: _278  and  _279
REMARK  109  A    between atoms: _282  and  _284
REMARK  110  A    between atoms: _284  and  _285
REMARK  111  A    between atoms: _284  and  _287
REMARK  112  A    between atoms: _287  and  _288
REMARK  113  A    between atoms: _288  and  _289
REMARK  114  A    between atoms: _292  and  _294
REMARK  115  A    between atoms: _294  and  _295
REMARK  116  A    between atoms: _298  and  _300
REMARK  117  A    between atoms: _300  and  _301
REMARK                            x       y       z     vdW  Elec       q    Type
REMARK                         _______ _______ _______ _____ _____    ______ ____
ROOT
ATOM      1  CA  HIS A   1      29.872 -14.978   7.964  0.00  0.00    +0.151 C 
ENDROOT
BRANCH   1   2
ATOM      2  C   HIS A   1      31.288 -14.501   8.234  0.00  0.00    +0.239 C 
ATOM      3  O   HIS A   1      32.089 -15.215   8.853  0.00  0.00    -0.274 OA
ATOM      4  N   ALA A   2      31.621 -13.296   7.780  0.00  0.00    -0.298 N 
ATOM      5  H   ALA A   2      30.878 -12.628   7.493  0.00  0.00    +0.150 HD
BRANCH   4   6
ATOM      6  CA  ALA A   2      33.041 -12.902   7.681  0.00  0.00    +0.137 C 
ATOM      7  CB  ALA A   2      33.163 -11.482   7.136  0.00  0.00    +0.030 C 
BRANCH   6   8
ATOM      8  C   ALA A   2      33.820 -13.052   8.996  0.00  0.00    +0.227 C 
ATOM      9  O   ALA A   2      33.457 -12.468  10.007  0.00  0.00    -0.286 OA
ENDBRANCH   6   8
ENDBRANCH   4   6
ENDBRANCH   1   2
BRANCH   1  10
ATOM     10  N   HIS A   1      28.788 -13.984   8.080  0.00  0.00    -0.238 NA
ATOM     11  H   HIS A   1      28.287 -13.685   7.219  0.00  0.00    +0.142 HD
ENDBRANCH   1  10
BRANCH   1  12
ATOM     12  CB  HIS A   1      29.790 -15.600   6.575  0.00  0.00    +0.074 C 
BRANCH  12  13
ATOM     13  CG  HIS A   1      30.985 -16.459   6.215  0.00  0.00    +0.082 A 
ATOM     14  CD2 HIS A   1      31.364 -17.707   6.665  0.00  0.00    +0.115 A 
ATOM     15  NE2 HIS A   1      32.526 -18.043   6.040  0.00  0.00    -0.221 NA
ATOM     16  CE1 HIS A   1      32.860 -17.062   5.191  0.00  0.00    +0.199 A 
ATOM     17  ND1 HIS A   1      31.920 -16.068   5.317  0.00  0.00    -0.227 NA
ENDBRANCH  12  13
ENDBRANCH   1  12
TORSDOF 6
REMARK  Name = ../refined-set-2016/4aia/4aia_pocket.pdb
REMARK  117 active torsions:
REMARK  status: ('A' for Active; 'I' for Inactive)
REMARK    1  A    between atoms: _1  and  _3
REMARK    2  A    between atoms: _3  and  _4
REMARK    3  A    between atoms: _3  and  _6
REMARK    4  A    between atoms: _8  and  _10
REMARK    5  A    between atoms: _10  and  _11
REMARK    6  A    between atoms: _14  and  _16
REMARK    7  A    between atoms: _16  and  _17
REMARK    8  A    between atoms: _16  and  _19
REMARK    9  A    between atoms: _19  and  _20
REMARK   10  A    between atoms: _26  and  _28
REMARK   11  A    between atoms: _28  and  _29
REMARK   12  A    between atoms: _28  and  _31
REMARK   13  A    between atoms: _31  and  _32
REMARK   14  A    between atoms: _37  and  _38
REMARK   15  A    between atoms: _40  and  _42
REMARK   16  A    between atoms: _42  and  _43
REMARK   17  A    between atoms: _42  and  _45
REMARK   18  A    between atoms: _45  and  _46
REMARK   19  A    between atoms: _51  and  _52
REMARK   20  A    between atoms: _54  and  _56
REMARK   21  A    between atoms: _56  and  _57
REMARK   22  A    between atoms: _56  and  _59
REMARK   23  A    between atoms: _59  and  _60
REMARK   24  A    between atoms: _65  and  _67
REMARK   25  A    between atoms: _67  and  _68
REMARK   26  A    between atoms: _67  and  _70
REMARK   27  A    between atoms: _73  and  _75
REMARK   28  A    between atoms: _75  and  _76
REMARK   29  A    between atoms: _75  and  _78
REMARK   30  A    between atoms: _78  and  _79
REMARK   31  A    between atoms: _89  and  _91
REMARK   32  A    between atoms: _91  and  _92
REMARK   33  A    between atoms: _94  and  _96
REMARK   34  A    between atoms: _96  and  _97
REMARK   35  A    between atoms: _96  and  _99
REMARK   36  A    between atoms: _99  and  _100
REMARK   37  A    between atoms: _103  and  _105
REMARK   38  A    between atoms: _105  and  _106
REMARK   39  A    between atoms: _105  and  _108
REMARK   40  A    between atoms: _108  and  _109
REMARK   41  A    between atoms: _112  and  _114
REMARK   42  A    between atoms: _114  and  _115
REMARK   43  A    between atoms: _114  and  _117
REMARK   44  A    between atoms: _117  and  _118
REMARK   45  A    between atoms: _118  and  _119
REMARK   46  A    between atoms: _122  and  _124
REMARK   47  A    between atoms: _124  and  _125
REMARK   48  A    between atoms: _124  and  _127
REMARK   49  A    between atoms: _127  and  _128
REMARK   50  A    between atoms: _130  and  _132
REMARK   51  A    between atoms: _132  and  _133
REMARK   52  A    between atoms: _132  and  _135
REMARK   53  A    between atoms: _135  and  _136
REMARK   54  A    between atoms: _141  and  _143
REMARK   55  A    between atoms: _143  and  _144
REMARK   56  A    between atoms: _147  and  _149
REMARK   57  A    between atoms: _149  and  _150
REMARK   58  A    between atoms: _149  and  _152
REMARK   59  A    between atoms: _152  and  _153
REMARK   60  A    between atoms: _156  and  _158
REMARK   61  A    between atoms: _158  and  _159
REMARK   62  A    between atoms: _158  and  _161
REMARK   63  A    between atoms: _161  and  _162
REMARK   64  A    between atoms: _164  and  _166
REMARK   65  A    between atoms: _166  and  _167
REMARK   66  A    between atoms: _166  and  _169
REMARK   67  A    between atoms: _169  and  _170
REMARK   68  A    between atoms: _180  and  _182
REMARK   69  A    between atoms: _182  and  _183
REMARK   70  A    between atoms: _182  and  _185
REMARK   71  A    between atoms: _185  and  _186
REMARK   72  A    between atoms: _189  and  _191
REMARK   73  A    between atoms: _191  and  _192
REMARK   74  A    between atoms: _191  and  _194
REMARK   75  A    between atoms: _194  and  _195
REMARK   76  A    between atoms: _198  and  _200
REMARK   77  A    between atoms: _200  and  _201
REMARK   78  A    between atoms: _200  and  _203
REMARK   79  A    between atoms: _203  and  _204
REMARK   80  A    between atoms: _207  and  _209
REMARK   81  A    between atoms: _209  and  _210
REMARK   82  A    between atoms: _209  and  _212
REMARK   83  A    between atoms: _212  and  _213
REMARK   84  A    between atoms: _213  and  _214
REMARK   85  A    between atoms: _214  and  _215
REMARK   86  A    between atoms: _224  and  _226
REMARK   87  A    between atoms: _226  and  _227
REMARK   88  A    between atoms: _226  and  _229
REMARK   89  A    between atoms: _232  and  _234
REMARK   90  A    between atoms: _234  and  _235
REMARK   91  A    between atoms: _234  and  _237
REMARK   92  A    between atoms: _237  and  _238
REMARK   93  A    between atoms: _241  and  _243
REMARK   94  A    between atoms: _243  and  _244
REMARK   95  A    between atoms: _243  and  _246
REMARK   96  A    between atoms: _246  and  _247
REMARK   97  A    between atoms: _253  and  _255
REMARK   98  A    between atoms: _255  and  _256
REMARK   99  A    between atoms: _255  and  _258
REMARK  100  A    between atoms: _258  and  _259
REMARK  101  A    between atoms: _261  and  _263
REMARK  102  A    between atoms: _263  and  _264
REMARK  103  A    between atoms: _263  and  _266
REMARK  104  A    between atoms: _266  and  _267
REMARK  105  A    between atoms: _273  and  _275
REMARK  106  A    between atoms: _275  and  _276
REMARK  107  A    between atoms: _275  and  _278
REMARK  108  A    between atoms: _278  and  _279
REMARK  109  A    between atoms: _282  and  _284
REMARK  110  A    between atoms: _284  and  _285
REMARK  111  A    between atoms: _284  and  _287
REMARK  112  A    between atoms: _287  and  _288
REMARK  113  A    between atoms: _288  and  _289
REMARK  114  A    between atoms: _292  and  _294
REMARK  115  A    between atoms: _294  and  _295
REMARK  116  A    between atoms: _298  and  _300
REMARK  117  A    between atoms: _300  and  _301
REMARK                            x       y       z     vdW  Elec       q    Type
REMARK                         _______ _______ _______ _____ _____    ______ ____
ROOT
ATOM      1  CA  TRP A   3      29.904 -20.964   7.451  0.00  0.00    +0.153 C 
ENDROOT
BRANCH   1   4
ATOM      2  C   SER A   2      31.645 -20.521   9.023  0.00  0.00    +0.243 C 
ATOM      3  O   SER A   2      30.801 -20.011   9.766  0.00  0.00    -0.273 OA
ATOM      4  N   TRP A   3      31.314 -21.011   7.843  0.00  0.00    -0.297 N 
ATOM      5  H   TRP A   3      32.033 -21.418   7.211  0.00  0.00    +0.150 HD
BRANCH   2   6
ATOM      6  CA  SER A   2      33.114 -20.612   9.437  0.00  0.00    +0.178 C 
BRANCH   6   8
ATOM      7  C   LEU A   1      33.637 -18.318  10.020  0.00  0.00    +0.238 C 
ATOM      8  N   SER A   2      33.421 -19.569  10.433  0.00  0.00    -0.295 N 
ATOM      9  H   SER A   2      33.469 -19.805  11.445  0.00  0.00    +0.150 HD
ATOM     10  O   LEU A   1      33.746 -18.005   8.833  0.00  0.00    -0.274 OA
BRANCH   7  11
ATOM     11  CA  LEU A   1      33.766 -17.243  11.087  0.00  0.00    +0.145 C 
BRANCH  11  12
ATOM     12  N   LEU A   1      34.248 -16.010  10.466  0.00  0.00    -0.238 NA
ATOM     13  H   LEU A   1      33.732 -15.629   9.647  0.00  0.00    +0.142 HD
ENDBRANCH  11  12
BRANCH  11  14
ATOM     14  CB  LEU A   1      32.386 -17.017  11.736  0.00  0.00    +0.026 C 
BRANCH  14  15
ATOM     15  CG  LEU A   1      32.375 -15.933  12.813  0.00  0.00    +0.002 C 
ATOM     16  CD2 LEU A   1      33.165 -16.413  14.025  0.00  0.00    +0.000 C 
ATOM     17  CD1 LEU A   1      30.946 -15.590  13.190  0.00  0.00    +0.000 C 
ENDBRANCH  14  15
ENDBRANCH  11  14
ENDBRANCH   7  11
ENDBRANCH   6   8
BRANCH   6  18
ATOM     18  CB  SER A   2      33.444 -22.008   9.971  0.00  0.00    +0.166 C 
BRANCH  18  19
ATOM     19  OG  SER A   2      32.426 -22.480  10.831  0.00  0.00    -0.380 OA
ATOM     20  H   SER A   2      32.666 -23.382  11.160  0.00  0.00    +0.211 HD
ENDBRANCH  18  19
ENDBRANCH   6  18
ENDBRANCH   2   6
ENDBRANCH   1   4
BRANCH   1  21
ATOM     21  C   TRP A   3      29.051 -21.882   8.319  0.00  0.00    +0.241 C 
ATOM     22  O   TRP A   3      27.927 -21.552   8.697  0.00  0.00    -0.273 OA
ATOM     23  N   LEU A   4      29.569 -23.057   8.652  0.00  0.00    -0.298 N 
ATOM     24  H   LEU A   4      30.516 -23.329   8.318  0.00  0.00    +0.150 HD
BRANCH  23  25
ATOM     25  CA  LEU A   4      28.786 -23.973   9.502  0.00  0.00    +0.137 C 
BRANCH  25  26
ATOM     26  C   LEU A   4      28.451 -23.332  10.838  0.00  0.00    +0.227 C 
ATOM     27  O   LEU A   4      27.361 -23.567  11.403  0.00  0.00    -0.286 OA
ENDBRANCH  25  26
BRANCH  25  28
ATOM     28  CB  LEU A   4      29.514 -25.311   9.724  0.00  0.00    +0.028 C 
BRANCH  28  29
ATOM     29  CG  LEU A   4      28.731 -26.456  10.391  0.00  0.00    +0.002 C 
ATOM     30  CD2 LEU A   4      29.571 -27.723  10.318  0.00  0.00    +0.000 C 
ATOM     31  CD1 LEU A   4      27.354 -26.672   9.765  0.00  0.00    +0.000 C 
ENDBRANCH  28  29
ENDBRANCH  25  28
ENDBRANCH  23  25
ENDBRANCH   1  21
BRANCH   1  32
ATOM     32  CB  TRP A   3      29.751 -21.305   5.975  0.00  0.00    +0.057 C 
BRANCH  32  33
ATOM     33  CG  TRP A   3      28.295 -21.390   5.622  0.00  0.00    -0.002 A 
ATOM     34  CD2 TRP A   3      27.327 -20.317   5.726  0.00  0.00    +0.013 A 
ATOM     35  CE3 TRP A   3      27.409 -18.953   6.043  0.00  0.00    +0.001 A 
ATOM     36  CZ3 TRP A   3      26.233 -18.199   6.012  0.00  0.00    +0.000 A 
ATOM     37  CH2 TRP A   3      25.021 -18.762   5.638  0.00  0.00    +0.001 A 
ATOM     38  CZ2 TRP A   3      24.885 -20.111   5.291  0.00  0.00    +0.017 A 
ATOM     39  CE2 TRP A   3      26.040 -20.882   5.337  0.00  0.00    +0.056 A 
ATOM     40  NE1 TRP A   3      26.241 -22.194   5.092  0.00  0.00    -0.352 N 
ATOM     41  HE1 TRP A   3      25.497 -22.867   4.818  0.00  0.00    +0.166 HD
ATOM     42  CD1 TRP A   3      27.568 -22.516   5.256  0.00  0.00    +0.068 A 
ENDBRANCH  32  33
ENDBRANCH   1  32
TORSDOF 16
REMARK  Name = ../refined-set-2016/4aia/4aia_pocket.pdb
REMARK  117 active torsions:
REMARK  status: ('A' for Active; 'I' for Inactive)
REMARK    1  A    between atoms: _1  and  _3
REMARK    2  A    between atoms: _3  and  _4
REMARK    3  A    between atoms: _3  and  _6
REMARK    4  A    between atoms: _8  and  _10
REMARK    5  A    between atoms: _10  and  _11
REMARK    6  A    between atoms: _14  and  _16
REMARK    7  A    between atoms: _16  and  _17
REMARK    8  A    between atoms: _16  and  _19
REMARK    9  A    between atoms: _19  and  _20
REMARK   10  A    between atoms: _26  and  _28
REMARK   11  A    between atoms: _28  and  _29
REMARK   12  A    between atoms: _28  and  _31
REMARK   13  A    between atoms: _31  and  _32
REMARK   14  A    between atoms: _37  and  _38
REMARK   15  A    between atoms: _40  and  _42
REMARK   16  A    between atoms: _42  and  _43
REMARK   17  A    between atoms: _42  and  _45
REMARK   18  A    between atoms: _45  and  _46
REMARK   19  A    between atoms: _51  and  _52
REMARK   20  A    between atoms: _54  and  _56
REMARK   21  A    between atoms: _56  and  _57
REMARK   22  A    between atoms: _56  and  _59
REMARK   23  A    between atoms: _59  and  _60
REMARK   24  A    between atoms: _65  and  _67
REMARK   25  A    between atoms: _67  and  _68
REMARK   26  A    between atoms: _67  and  _70
REMARK   27  A    between atoms: _73  and  _75
REMARK   28  A    between atoms: _75  and  _76
REMARK   29  A    between atoms: _75  and  _78
REMARK   30  A    between atoms: _78  and  _79
REMARK   31  A    between atoms: _89  and  _91
REMARK   32  A    between atoms: _91  and  _92
REMARK   33  A    between atoms: _94  and  _96
REMARK   34  A    between atoms: _96  and  _97
REMARK   35  A    between atoms: _96  and  _99
REMARK   36  A    between atoms: _99  and  _100
REMARK   37  A    between atoms: _103  and  _105
REMARK   38  A    between atoms: _105  and  _106
REMARK   39  A    between atoms: _105  and  _108
REMARK   40  A    between atoms: _108  and  _109
REMARK   41  A    between atoms: _112  and  _114
REMARK   42  A    between atoms: _114  and  _115
REMARK   43  A    between atoms: _114  and  _117
REMARK   44  A    between atoms: _117  and  _118
REMARK   45  A    between atoms: _118  and  _119
REMARK   46  A    between atoms: _122  and  _124
REMARK   47  A    between atoms: _124  and  _125
REMARK   48  A    between atoms: _124  and  _127
REMARK   49  A    between atoms: _127  and  _128
REMARK   50  A    between atoms: _130  and  _132
REMARK   51  A    between atoms: _132  and  _133
REMARK   52  A    between atoms: _132  and  _135
REMARK   53  A    between atoms: _135  and  _136
REMARK   54  A    between atoms: _141  and  _143
REMARK   55  A    between atoms: _143  and  _144
REMARK   56  A    between atoms: _147  and  _149
REMARK   57  A    between atoms: _149  and  _150
REMARK   58  A    between atoms: _149  and  _152
REMARK   59  A    between atoms: _152  and  _153
REMARK   60  A    between atoms: _156  and  _158
REMARK   61  A    between atoms: _158  and  _159
REMARK   62  A    between atoms: _158  and  _161
REMARK   63  A    between atoms: _161  and  _162
REMARK   64  A    between atoms: _164  and  _166
REMARK   65  A    between atoms: _166  and  _167
REMARK   66  A    between atoms: _166  and  _169
REMARK   67  A    between atoms: _169  and  _170
REMARK   68  A    between atoms: _180  and  _182
REMARK   69  A    between atoms: _182  and  _183
REMARK   70  A    between atoms: _182  and  _185
REMARK   71  A    between atoms: _185  and  _186
REMARK   72  A    between atoms: _189  and  _191
REMARK   73  A    between atoms: _191  and  _192
REMARK   74  A    between atoms: _191  and  _194
REMARK   75  A    between atoms: _194  and  _195
REMARK   76  A    between atoms: _198  and  _200
REMARK   77  A    between atoms: _200  and  _201
REMARK   78  A    between atoms: _200  and  _203
REMARK   79  A    between atoms: _203  and  _204
REMARK   80  A    between atoms: _207  and  _209
REMARK   81  A    between atoms: _209  and  _210
REMARK   82  A    between atoms: _209  and  _212
REMARK   83  A    between atoms: _212  and  _213
REMARK   84  A    between atoms: _213  and  _214
REMARK   85  A    between atoms: _214  and  _215
REMARK   86  A    between atoms: _224  and  _226
REMARK   87  A    between atoms: _226  and  _227
REMARK   88  A    between atoms: _226  and  _229
REMARK   89  A    between atoms: _232  and  _234
REMARK   90  A    between atoms: _234  and  _235
REMARK   91  A    between atoms: _234  and  _237
REMARK   92  A    between atoms: _237  and  _238
REMARK   93  A    between atoms: _241  and  _243
REMARK   94  A    between atoms: _243  and  _244
REMARK   95  A    between atoms: _243  and  _246
REMARK   96  A    between atoms: _246  and  _247
REMARK   97  A    between atoms: _253  and  _255
REMARK   98  A    between atoms: _255  and  _256
REMARK   99  A    between atoms: _255  and  _258
REMARK  100  A    between atoms: _258  and  _259
REMARK  101  A    between atoms: _261  and  _263
REMARK  102  A    between atoms: _263  and  _264
REMARK  103  A    between atoms: _263  and  _266
REMARK  104  A    between atoms: _266  and  _267
REMARK  105  A    between atoms: _273  and  _275
REMARK  106  A    between atoms: _275  and  _276
REMARK  107  A    between atoms: _275  and  _278
REMARK  108  A    between atoms: _278  and  _279
REMARK  109  A    between atoms: _282  and  _284
REMARK  110  A    between atoms: _284  and  _285
REMARK  111  A    between atoms: _284  and  _287
REMARK  112  A    between atoms: _287  and  _288
REMARK  113  A    between atoms: _288  and  _289
REMARK  114  A    between atoms: _292  and  _294
REMARK  115  A    between atoms: _294  and  _295
REMARK  116  A    between atoms: _298  and  _300
REMARK  117  A    between atoms: _300  and  _301
REMARK                            x       y       z     vdW  Elec       q    Type
REMARK                         _______ _______ _______ _____ _____    ______ ____
ROOT
ATOM      1  C   ILE A   1      25.230 -20.266  10.992  0.00  0.00    +0.238 C 
ATOM      2  O   ILE A   1      24.160 -19.989  11.540  0.00  0.00    -0.274 OA
ATOM      3  N   LEU A   2      25.372 -21.342  10.228  0.00  0.00    -0.298 N 
ATOM      4  H   LEU A   2      26.291 -21.532   9.780  0.00  0.00    +0.150 HD
ENDROOT
BRANCH   1   5
ATOM      5  CA  ILE A   1      26.473 -19.378  11.152  0.00  0.00    +0.145 C 
BRANCH   5   6
ATOM      6  N   ILE A   1      27.674 -20.212  11.369  0.00  0.00    -0.238 NA
ATOM      7  H   ILE A   1      28.415 -20.235  10.640  0.00  0.00    +0.142 HD
ENDBRANCH   5   6
BRANCH   5   8
ATOM      8  CB  ILE A   1      26.632 -18.465   9.916  0.00  0.00    +0.025 C 
ATOM      9  CG2 ILE A   1      25.336 -17.685   9.662  0.00  0.00    +0.002 C 
BRANCH   8  10
ATOM     10  CG1 ILE A   1      27.806 -17.501  10.111  0.00  0.00    +0.002 C 
ATOM     11  CD1 ILE A   1      27.779 -16.780  11.445  0.00  0.00    +0.000 C 
ENDBRANCH   8  10
ENDBRANCH   5   8
ENDBRANCH   1   5
BRANCH   3  12
ATOM     12  CA  LEU A   2      24.253 -22.271  10.003  0.00  0.00    +0.137 C 
BRANCH  12  13
ATOM     13  C   LEU A   2      23.666 -22.763  11.304  0.00  0.00    +0.227 C 
ATOM     14  O   LEU A   2      22.419 -22.834  11.466  0.00  0.00    -0.286 OA
ENDBRANCH  12  13
BRANCH  12  15
ATOM     15  CB  LEU A   2      24.697 -23.494   9.202  0.00  0.00    +0.028 C 
BRANCH  15  16
ATOM     16  CG  LEU A   2      24.716 -23.368   7.693  0.00  0.00    +0.002 C 
ATOM     17  CD2 LEU A   2      23.442 -22.729   7.164  0.00  0.00    +0.000 C 
ATOM     18  CD1 LEU A   2      24.928 -24.743   7.069  0.00  0.00    +0.000 C 
ENDBRANCH  15  16
ENDBRANCH  12  15
ENDBRANCH   3  12
TORSDOF 8
REMARK  Name = ../refined-set-2016/4aia/4aia_pocket.pdb
REMARK  117 active torsions:
REMARK  status: ('A' for Active; 'I' for Inactive)
REMARK    1  A    between atoms: _1  and  _3
REMARK    2  A    between atoms: _3  and  _4
REMARK    3  A    between atoms: _3  and  _6
REMARK    4  A    between atoms: _8  and  _10
REMARK    5  A    between atoms: _10  and  _11
REMARK    6  A    between atoms: _14  and  _16
REMARK    7  A    between atoms: _16  and  _17
REMARK    8  A    between atoms: _16  and  _19
REMARK    9  A    between atoms: _19  and  _20
REMARK   10  A    between atoms: _26  and  _28
REMARK   11  A    between atoms: _28  and  _29
REMARK   12  A    between atoms: _28  and  _31
REMARK   13  A    between atoms: _31  and  _32
REMARK   14  A    between atoms: _37  and  _38
REMARK   15  A    between atoms: _40  and  _42
REMARK   16  A    between atoms: _42  and  _43
REMARK   17  A    between atoms: _42  and  _45
REMARK   18  A    between atoms: _45  and  _46
REMARK   19  A    between atoms: _51  and  _52
REMARK   20  A    between atoms: _54  and  _56
REMARK   21  A    between atoms: _56  and  _57
REMARK   22  A    between atoms: _56  and  _59
REMARK   23  A    between atoms: _59  and  _60
REMARK   24  A    between atoms: _65  and  _67
REMARK   25  A    between atoms: _67  and  _68
REMARK   26  A    between atoms: _67  and  _70
REMARK   27  A    between atoms: _73  and  _75
REMARK   28  A    between atoms: _75  and  _76
REMARK   29  A    between atoms: _75  and  _78
REMARK   30  A    between atoms: _78  and  _79
REMARK   31  A    between atoms: _89  and  _91
REMARK   32  A    between atoms: _91  and  _92
REMARK   33  A    between atoms: _94  and  _96
REMARK   34  A    between atoms: _96  and  _97
REMARK   35  A    between atoms: _96  and  _99
REMARK   36  A    between atoms: _99  and  _100
REMARK   37  A    between atoms: _103  and  _105
REMARK   38  A    between atoms: _105  and  _106
REMARK   39  A    between atoms: _105  and  _108
REMARK   40  A    between atoms: _108  and  _109
REMARK   41  A    between atoms: _112  and  _114
REMARK   42  A    between atoms: _114  and  _115
REMARK   43  A    between atoms: _114  and  _117
REMARK   44  A    between atoms: _117  and  _118
REMARK   45  A    between atoms: _118  and  _119
REMARK   46  A    between atoms: _122  and  _124
REMARK   47  A    between atoms: _124  and  _125
REMARK   48  A    between atoms: _124  and  _127
REMARK   49  A    between atoms: _127  and  _128
REMARK   50  A    between atoms: _130  and  _132
REMARK   51  A    between atoms: _132  and  _133
REMARK   52  A    between atoms: _132  and  _135
REMARK   53  A    between atoms: _135  and  _136
REMARK   54  A    between atoms: _141  and  _143
REMARK   55  A    between atoms: _143  and  _144
REMARK   56  A    between atoms: _147  and  _149
REMARK   57  A    between atoms: _149  and  _150
REMARK   58  A    between atoms: _149  and  _152
REMARK   59  A    between atoms: _152  and  _153
REMARK   60  A    between atoms: _156  and  _158
REMARK   61  A    between atoms: _158  and  _159
REMARK   62  A    between atoms: _158  and  _161
REMARK   63  A    between atoms: _161  and  _162
REMARK   64  A    between atoms: _164  and  _166
REMARK   65  A    between atoms: _166  and  _167
REMARK   66  A    between atoms: _166  and  _169
REMARK   67  A    between atoms: _169  and  _170
REMARK   68  A    between atoms: _180  and  _182
REMARK   69  A    between atoms: _182  and  _183
REMARK   70  A    between atoms: _182  and  _185
REMARK   71  A    between atoms: _185  and  _186
REMARK   72  A    between atoms: _189  and  _191
REMARK   73  A    between atoms: _191  and  _192
REMARK   74  A    between atoms: _191  and  _194
REMARK   75  A    between atoms: _194  and  _195
REMARK   76  A    between atoms: _198  and  _200
REMARK   77  A    between atoms: _200  and  _201
REMARK   78  A    between atoms: _200  and  _203
REMARK   79  A    between atoms: _203  and  _204
REMARK   80  A    between atoms: _207  and  _209
REMARK   81  A    between atoms: _209  and  _210
REMARK   82  A    between atoms: _209  and  _212
REMARK   83  A    between atoms: _212  and  _213
REMARK   84  A    between atoms: _213  and  _214
REMARK   85  A    between atoms: _214  and  _215
REMARK   86  A    between atoms: _224  and  _226
REMARK   87  A    between atoms: _226  and  _227
REMARK   88  A    between atoms: _226  and  _229
REMARK   89  A    between atoms: _232  and  _234
REMARK   90  A    between atoms: _234  and  _235
REMARK   91  A    between atoms: _234  and  _237
REMARK   92  A    between atoms: _237  and  _238
REMARK   93  A    between atoms: _241  and  _243
REMARK   94  A    between atoms: _243  and  _244
REMARK   95  A    between atoms: _243  and  _246
REMARK   96  A    between atoms: _246  and  _247
REMARK   97  A    between atoms: _253  and  _255
REMARK   98  A    between atoms: _255  and  _256
REMARK   99  A    between atoms: _255  and  _258
REMARK  100  A    between atoms: _258  and  _259
REMARK  101  A    between atoms: _261  and  _263
REMARK  102  A    between atoms: _263  and  _264
REMARK  103  A    between atoms: _263  and  _266
REMARK  104  A    between atoms: _266  and  _267
REMARK  105  A    between atoms: _273  and  _275
REMARK  106  A    between atoms: _275  and  _276
REMARK  107  A    between atoms: _275  and  _278
REMARK  108  A    between atoms: _278  and  _279
REMARK  109  A    between atoms: _282  and  _284
REMARK  110  A    between atoms: _284  and  _285
REMARK  111  A    between atoms: _284  and  _287
REMARK  112  A    between atoms: _287  and  _288
REMARK  113  A    between atoms: _288  and  _289
REMARK  114  A    between atoms: _292  and  _294
REMARK  115  A    between atoms: _294  and  _295
REMARK  116  A    between atoms: _298  and  _300
REMARK  117  A    between atoms: _300  and  _301
REMARK                            x       y       z     vdW  Elec       q    Type
REMARK                         _______ _______ _______ _____ _____    ______ ____
ROOT
ATOM      1  NE  ARG A   1      31.585 -25.699  -5.717  0.00  0.00    -0.265 N 
ATOM      2  CZ  ARG A   1      31.502 -26.608  -4.749  0.00  0.00    +0.342 C 
ATOM      3  NH2 ARG A   1      32.373 -26.603  -3.742  0.00  0.00    -0.292 N 
ATOM      4 HH21 ARG A   1      32.302 -27.317  -2.989  0.00  0.00    +0.255 HD
ATOM      5 HH22 ARG A   1      33.125 -25.885  -3.708  0.00  0.00    +0.255 HD
ATOM      6  NH1 ARG A   1      30.537 -27.524  -4.791  0.00  0.00    -0.292 N 
ATOM      7 HH11 ARG A   1      30.465 -28.238  -4.038  0.00  0.00    +0.255 HD
ATOM      8 HH12 ARG A   1      29.855 -27.525  -5.576  0.00  0.00    +0.255 HD
ATOM      9  HE  ARG A   1      30.907 -25.763  -6.503  0.00  0.00    +0.259 HD
ENDROOT
BRANCH   1  10
ATOM     10  CD  ARG A   1      32.577 -24.605  -5.749  0.00  0.00    +0.174 C 
BRANCH  10  11
ATOM     11  CG  ARG A   1      33.560 -24.680  -6.886  0.00  0.00    +0.045 C 
BRANCH  11  12
ATOM     12  CB  ARG A   1      34.526 -23.517  -6.758  0.00  0.00    +0.029 C 
BRANCH  12  13
ATOM     13  CA  ARG A   1      35.055 -23.073  -8.110  0.00  0.00    +0.133 C 
BRANCH  13  14
ATOM     14  N   ARG A   1      35.923 -24.108  -8.682  0.00  0.00    -0.239 NA
ATOM     15  H   ARG A   1      36.252 -24.882  -8.071  0.00  0.00    +0.142 HD
ENDBRANCH  13  14
BRANCH  13  16
ATOM     16  C   ARG A   1      35.724 -21.730  -7.955  0.00  0.00    +0.224 C 
ATOM     17  O   ARG A   1      36.853 -21.651  -7.510  0.00  0.00    -0.287 OA
ENDBRANCH  13  16
ENDBRANCH  12  13
ENDBRANCH  11  12
ENDBRANCH  10  11
ENDBRANCH   1  10
TORSDOF 6
REMARK  Name = ../refined-set-2016/4aia/4aia_pocket.pdb
REMARK  117 active torsions:
REMARK  status: ('A' for Active; 'I' for Inactive)
REMARK    1  A    between atoms: _1  and  _3
REMARK    2  A    between atoms: _3  and  _4
REMARK    3  A    between atoms: _3  and  _6
REMARK    4  A    between atoms: _8  and  _10
REMARK    5  A    between atoms: _10  and  _11
REMARK    6  A    between atoms: _14  and  _16
REMARK    7  A    between atoms: _16  and  _17
REMARK    8  A    between atoms: _16  and  _19
REMARK    9  A    between atoms: _19  and  _20
REMARK   10  A    between atoms: _26  and  _28
REMARK   11  A    between atoms: _28  and  _29
REMARK   12  A    between atoms: _28  and  _31
REMARK   13  A    between atoms: _31  and  _32
REMARK   14  A    between atoms: _37  and  _38
REMARK   15  A    between atoms: _40  and  _42
REMARK   16  A    between atoms: _42  and  _43
REMARK   17  A    between atoms: _42  and  _45
REMARK   18  A    between atoms: _45  and  _46
REMARK   19  A    between atoms: _51  and  _52
REMARK   20  A    between atoms: _54  and  _56
REMARK   21  A    between atoms: _56  and  _57
REMARK   22  A    between atoms: _56  and  _59
REMARK   23  A    between atoms: _59  and  _60
REMARK   24  A    between atoms: _65  and  _67
REMARK   25  A    between atoms: _67  and  _68
REMARK   26  A    between atoms: _67  and  _70
REMARK   27  A    between atoms: _73  and  _75
REMARK   28  A    between atoms: _75  and  _76
REMARK   29  A    between atoms: _75  and  _78
REMARK   30  A    between atoms: _78  and  _79
REMARK   31  A    between atoms: _89  and  _91
REMARK   32  A    between atoms: _91  and  _92
REMARK   33  A    between atoms: _94  and  _96
REMARK   34  A    between atoms: _96  and  _97
REMARK   35  A    between atoms: _96  and  _99
REMARK   36  A    between atoms: _99  and  _100
REMARK   37  A    between atoms: _103  and  _105
REMARK   38  A    between atoms: _105  and  _106
REMARK   39  A    between atoms: _105  and  _108
REMARK   40  A    between atoms: _108  and  _109
REMARK   41  A    between atoms: _112  and  _114
REMARK   42  A    between atoms: _114  and  _115
REMARK   43  A    between atoms: _114  and  _117
REMARK   44  A    between atoms: _117  and  _118
REMARK   45  A    between atoms: _118  and  _119
REMARK   46  A    between atoms: _122  and  _124
REMARK   47  A    between atoms: _124  and  _125
REMARK   48  A    between atoms: _124  and  _127
REMARK   49  A    between atoms: _127  and  _128
REMARK   50  A    between atoms: _130  and  _132
REMARK   51  A    between atoms: _132  and  _133
REMARK   52  A    between atoms: _132  and  _135
REMARK   53  A    between atoms: _135  and  _136
REMARK   54  A    between atoms: _141  and  _143
REMARK   55  A    between atoms: _143  and  _144
REMARK   56  A    between atoms: _147  and  _149
REMARK   57  A    between atoms: _149  and  _150
REMARK   58  A    between atoms: _149  and  _152
REMARK   59  A    between atoms: _152  and  _153
REMARK   60  A    between atoms: _156  and  _158
REMARK   61  A    between atoms: _158  and  _159
REMARK   62  A    between atoms: _158  and  _161
REMARK   63  A    between atoms: _161  and  _162
REMARK   64  A    between atoms: _164  and  _166
REMARK   65  A    between atoms: _166  and  _167
REMARK   66  A    between atoms: _166  and  _169
REMARK   67  A    between atoms: _169  and  _170
REMARK   68  A    between atoms: _180  and  _182
REMARK   69  A    between atoms: _182  and  _183
REMARK   70  A    between atoms: _182  and  _185
REMARK   71  A    between atoms: _185  and  _186
REMARK   72  A    between atoms: _189  and  _191
REMARK   73  A    between atoms: _191  and  _192
REMARK   74  A    between atoms: _191  and  _194
REMARK   75  A    between atoms: _194  and  _195
REMARK   76  A    between atoms: _198  and  _200
REMARK   77  A    between atoms: _200  and  _201
REMARK   78  A    between atoms: _200  and  _203
REMARK   79  A    between atoms: _203  and  _204
REMARK   80  A    between atoms: _207  and  _209
REMARK   81  A    between atoms: _209  and  _210
REMARK   82  A    between atoms: _209  and  _212
REMARK   83  A    between atoms: _212  and  _213
REMARK   84  A    between atoms: _213  and  _214
REMARK   85  A    between atoms: _214  and  _215
REMARK   86  A    between atoms: _224  and  _226
REMARK   87  A    between atoms: _226  and  _227
REMARK   88  A    between atoms: _226  and  _229
REMARK   89  A    between atoms: _232  and  _234
REMARK   90  A    between atoms: _234  and  _235
REMARK   91  A    between atoms: _234  and  _237
REMARK   92  A    between atoms: _237  and  _238
REMARK   93  A    between atoms: _241  and  _243
REMARK   94  A    between atoms: _243  and  _244
REMARK   95  A    between atoms: _243  and  _246
REMARK   96  A    between atoms: _246  and  _247
REMARK   97  A    between atoms: _253  and  _255
REMARK   98  A    between atoms: _255  and  _256
REMARK   99  A    between atoms: _255  and  _258
REMARK  100  A    between atoms: _258  and  _259
REMARK  101  A    between atoms: _261  and  _263
REMARK  102  A    between atoms: _263  and  _264
REMARK  103  A    between atoms: _263  and  _266
REMARK  104  A    between atoms: _266  and  _267
REMARK  105  A    between atoms: _273  and  _275
REMARK  106  A    between atoms: _275  and  _276
REMARK  107  A    between atoms: _275  and  _278
REMARK  108  A    between atoms: _278  and  _279
REMARK  109  A    between atoms: _282  and  _284
REMARK  110  A    between atoms: _284  and  _285
REMARK  111  A    between atoms: _284  and  _287
REMARK  112  A    between atoms: _287  and  _288
REMARK  113  A    between atoms: _288  and  _289
REMARK  114  A    between atoms: _292  and  _294
REMARK  115  A    between atoms: _294  and  _295
REMARK  116  A    between atoms: _298  and  _300
REMARK  117  A    between atoms: _300  and  _301
REMARK                            x       y       z     vdW  Elec       q    Type
REMARK                         _______ _______ _______ _____ _____    ______ ____
ROOT
ATOM      1  C   VAL A   1      31.206 -12.813  -1.649  0.00  0.00    +0.238 C 
ATOM      2  N   THR A   2      30.722 -12.023  -0.695  0.00  0.00    -0.296 N 
ATOM      3  H   THR A   2      31.181 -11.107  -0.517  0.00  0.00    +0.150 HD
ATOM      4  O   VAL A   1      30.717 -13.914  -1.909  0.00  0.00    -0.274 OA
ENDROOT
BRANCH   1   5
ATOM      5  CA  VAL A   1      32.418 -12.266  -2.416  0.00  0.00    +0.145 C 
BRANCH   5   6
ATOM      6  CB  VAL A   1      33.717 -12.408  -1.592  0.00  0.00    +0.025 C 
ATOM      7  CG2 VAL A   1      33.875 -13.801  -0.987  0.00  0.00    +0.002 C 
ATOM      8  CG1 VAL A   1      34.933 -12.105  -2.451  0.00  0.00    +0.002 C 
ENDBRANCH   5   6
BRANCH   5   9
ATOM      9  N   VAL A   1      32.164 -10.843  -2.783  0.00  0.00    -0.238 NA
ATOM     10  H   VAL A   1      32.778 -10.104  -2.386  0.00  0.00    +0.142 HD
ENDBRANCH   5   9
ENDBRANCH   1   5
BRANCH   2  11
ATOM     11  CA  THR A   2      29.553 -12.409   0.118  0.00  0.00    +0.164 C 
BRANCH  11  12
ATOM     12  CB  THR A   2      29.341 -11.403   1.272  0.00  0.00    +0.136 C 
ATOM     13  CG2 THR A   2      28.148 -11.790   2.158  0.00  0.00    +0.034 C 
BRANCH  12  14
ATOM     14  OG1 THR A   2      30.512 -11.440   2.095  0.00  0.00    -0.382 OA
ATOM     15  HG1 THR A   2      30.635 -12.355   2.451  0.00  0.00    +0.210 HD
ENDBRANCH  12  14
ENDBRANCH  11  12
BRANCH  11  16
ATOM     16  C   THR A   2      28.297 -12.587  -0.732  0.00  0.00    +0.229 C 
ATOM     17  O   THR A   2      27.531 -13.564  -0.577  0.00  0.00    -0.286 OA
ENDBRANCH  11  16
ENDBRANCH   2  11
TORSDOF 7
REMARK  Name = ../refined-set-2016/4aia/4aia_pocket.pdb
REMARK  117 active torsions:
REMARK  status: ('A' for Active; 'I' for Inactive)
REMARK    1  A    between atoms: _1  and  _3
REMARK    2  A    between atoms: _3  and  _4
REMARK    3  A    between atoms: _3  and  _6
REMARK    4  A    between atoms: _8  and  _10
REMARK    5  A    between atoms: _10  and  _11
REMARK    6  A    between atoms: _14  and  _16
REMARK    7  A    between atoms: _16  and  _17
REMARK    8  A    between atoms: _16  and  _19
REMARK    9  A    between atoms: _19  and  _20
REMARK   10  A    between atoms: _26  and  _28
REMARK   11  A    between atoms: _28  and  _29
REMARK   12  A    between atoms: _28  and  _31
REMARK   13  A    between atoms: _31  and  _32
REMARK   14  A    between atoms: _37  and  _38
REMARK   15  A    between atoms: _40  and  _42
REMARK   16  A    between atoms: _42  and  _43
REMARK   17  A    between atoms: _42  and  _45
REMARK   18  A    between atoms: _45  and  _46
REMARK   19  A    between atoms: _51  and  _52
REMARK   20  A    between atoms: _54  and  _56
REMARK   21  A    between atoms: _56  and  _57
REMARK   22  A    between atoms: _56  and  _59
REMARK   23  A    between atoms: _59  and  _60
REMARK   24  A    between atoms: _65  and  _67
REMARK   25  A    between atoms: _67  and  _68
REMARK   26  A    between atoms: _67  and  _70
REMARK   27  A    between atoms: _73  and  _75
REMARK   28  A    between atoms: _75  and  _76
REMARK   29  A    between atoms: _75  and  _78
REMARK   30  A    between atoms: _78  and  _79
REMARK   31  A    between atoms: _89  and  _91
REMARK   32  A    between atoms: _91  and  _92
REMARK   33  A    between atoms: _94  and  _96
REMARK   34  A    between atoms: _96  and  _97
REMARK   35  A    between atoms: _96  and  _99
REMARK   36  A    between atoms: _99  and  _100
REMARK   37  A    between atoms: _103  and  _105
REMARK   38  A    between atoms: _105  and  _106
REMARK   39  A    between atoms: _105  and  _108
REMARK   40  A    between atoms: _108  and  _109
REMARK   41  A    between atoms: _112  and  _114
REMARK   42  A    between atoms: _114  and  _115
REMARK   43  A    between atoms: _114  and  _117
REMARK   44  A    between atoms: _117  and  _118
REMARK   45  A    between atoms: _118  and  _119
REMARK   46  A    between atoms: _122  and  _124
REMARK   47  A    between atoms: _124  and  _125
REMARK   48  A    between atoms: _124  and  _127
REMARK   49  A    between atoms: _127  and  _128
REMARK   50  A    between atoms: _130  and  _132
REMARK   51  A    between atoms: _132  and  _133
REMARK   52  A    between atoms: _132  and  _135
REMARK   53  A    between atoms: _135  and  _136
REMARK   54  A    between atoms: _141  and  _143
REMARK   55  A    between atoms: _143  and  _144
REMARK   56  A    between atoms: _147  and  _149
REMARK   57  A    between atoms: _149  and  _150
REMARK   58  A    between atoms: _149  and  _152
REMARK   59  A    between atoms: _152  and  _153
REMARK   60  A    between atoms: _156  and  _158
REMARK   61  A    between atoms: _158  and  _159
REMARK   62  A    between atoms: _158  and  _161
REMARK   63  A    between atoms: _161  and  _162
REMARK   64  A    between atoms: _164  and  _166
REMARK   65  A    between atoms: _166  and  _167
REMARK   66  A    between atoms: _166  and  _169
REMARK   67  A    between atoms: _169  and  _170
REMARK   68  A    between atoms: _180  and  _182
REMARK   69  A    between atoms: _182  and  _183
REMARK   70  A    between atoms: _182  and  _185
REMARK   71  A    between atoms: _185  and  _186
REMARK   72  A    between atoms: _189  and  _191
REMARK   73  A    between atoms: _191  and  _192
REMARK   74  A    between atoms: _191  and  _194
REMARK   75  A    between atoms: _194  and  _195
REMARK   76  A    between atoms: _198  and  _200
REMARK   77  A    between atoms: _200  and  _201
REMARK   78  A    between atoms: _200  and  _203
REMARK   79  A    between atoms: _203  and  _204
REMARK   80  A    between atoms: _207  and  _209
REMARK   81  A    between atoms: _209  and  _210
REMARK   82  A    between atoms: _209  and  _212
REMARK   83  A    between atoms: _212  and  _213
REMARK   84  A    between atoms: _213  and  _214
REMARK   85  A    between atoms: _214  and  _215
REMARK   86  A    between atoms: _224  and  _226
REMARK   87  A    between atoms: _226  and  _227
REMARK   88  A    between atoms: _226  and  _229
REMARK   89  A    between atoms: _232  and  _234
REMARK   90  A    between atoms: _234  and  _235
REMARK   91  A    between atoms: _234  and  _237
REMARK   92  A    between atoms: _237  and  _238
REMARK   93  A    between atoms: _241  and  _243
REMARK   94  A    between atoms: _243  and  _244
REMARK   95  A    between atoms: _243  and  _246
REMARK   96  A    between atoms: _246  and  _247
REMARK   97  A    between atoms: _253  and  _255
REMARK   98  A    between atoms: _255  and  _256
REMARK   99  A    between atoms: _255  and  _258
REMARK  100  A    between atoms: _258  and  _259
REMARK  101  A    between atoms: _261  and  _263
REMARK  102  A    between atoms: _263  and  _264
REMARK  103  A    between atoms: _263  and  _266
REMARK  104  A    between atoms: _266  and  _267
REMARK  105  A    between atoms: _273  and  _275
REMARK  106  A    between atoms: _275  and  _276
REMARK  107  A    between atoms: _275  and  _278
REMARK  108  A    between atoms: _278  and  _279
REMARK  109  A    between atoms: _282  and  _284
REMARK  110  A    between atoms: _284  and  _285
REMARK  111  A    between atoms: _284  and  _287
REMARK  112  A    between atoms: _287  and  _288
REMARK  113  A    between atoms: _288  and  _289
REMARK  114  A    between atoms: _292  and  _294
REMARK  115  A    between atoms: _294  and  _295
REMARK  116  A    between atoms: _298  and  _300
REMARK  117  A    between atoms: _300  and  _301
REMARK                            x       y       z     vdW  Elec       q    Type
REMARK                         _______ _______ _______ _____ _____    ______ ____
ROOT
ATOM      1  C   PHE A   3      23.836 -16.350  -2.803  0.00  0.00    +0.241 C 
ATOM      2  O   PHE A   3      22.861 -17.118  -2.762  0.00  0.00    -0.273 OA
ATOM      3  N   LEU A   4      24.339 -15.904  -3.967  0.00  0.00    -0.297 N 
ATOM      4  H   LEU A   4      25.119 -15.216  -3.974  0.00  0.00    +0.150 HD
ENDROOT
BRANCH   3   5
ATOM      5  CA  LEU A   4      23.767 -16.405  -5.243  0.00  0.00    +0.149 C 
BRANCH   5   6
ATOM      6  C   LEU A   4      23.844 -17.932  -5.336  0.00  0.00    +0.241 C 
ATOM      7  N   GLU A   5      24.971 -18.511  -4.921  0.00  0.00    -0.297 N 
ATOM      8  H   GLU A   5      25.773 -17.923  -4.617  0.00  0.00    +0.150 HD
ATOM      9  O   LEU A   4      22.871 -18.567  -5.760  0.00  0.00    -0.273 OA
BRANCH   7  10
ATOM     10  CA  GLU A   5      25.087 -19.987  -4.891  0.00  0.00    +0.149 C 
BRANCH  10  11
ATOM     11  C   GLU A   5      24.111 -20.623  -3.905  0.00  0.00    +0.241 C 
ATOM     12  N   ALA A   6      23.992 -20.017  -2.724  0.00  0.00    -0.297 N 
ATOM     13  H   ALA A   6      24.529 -19.145  -2.543  0.00  0.00    +0.150 HD
ATOM     14  O   GLU A   5      23.479 -21.646  -4.206  0.00  0.00    -0.273 OA
BRANCH  12  15
ATOM     15  CA  ALA A   6      23.109 -20.561  -1.661  0.00  0.00    +0.149 C 
ATOM     16  CB  ALA A   6      23.294 -19.828  -0.323  0.00  0.00    +0.031 C 
BRANCH  15  17
ATOM     17  C   ALA A   6      21.660 -20.532  -2.073  0.00  0.00    +0.241 C 
ATOM     18  O   ALA A   6      20.945 -21.493  -1.818  0.00  0.00    -0.273 OA
ATOM     19  N   ALA A   7      21.233 -19.446  -2.731  0.00  0.00    -0.298 N 
ATOM     20  H   ALA A   7      21.931 -18.712  -2.965  0.00  0.00    +0.150 HD
BRANCH  19  21
ATOM     21  CA  ALA A   7      19.835 -19.228  -3.143  0.00  0.00    +0.137 C 
ATOM     22  CB  ALA A   7      19.597 -17.727  -3.315  0.00  0.00    +0.030 C 
BRANCH  21  23
ATOM     23  C   ALA A   7      19.472 -19.971  -4.457  0.00  0.00    +0.227 C 
ATOM     24  O   ALA A   7      18.319 -19.979  -4.899  0.00  0.00    -0.286 OA
ENDBRANCH  21  23
ENDBRANCH  19  21
ENDBRANCH  15  17
ENDBRANCH  12  15
ENDBRANCH  10  11
BRANCH  10  25
ATOM     25  CB  GLU A   5      26.496 -20.429  -4.499  0.00  0.00    +0.041 C 
BRANCH  25  26
ATOM     26  CG  GLU A   5      27.622 -20.022  -5.435  0.00  0.00    +0.116 C 
BRANCH  26  27
ATOM     27  CD  GLU A   5      28.968 -20.402  -4.839  0.00  0.00    +0.365 C 
ATOM     28  OE2 GLU A   5      29.262 -20.024  -3.691  0.00  0.00    -0.246 OA
ATOM     29  OE1 GLU A   5      29.767 -21.056  -5.499  0.00  0.00    -0.246 OA
ENDBRANCH  26  27
ENDBRANCH  25  26
ENDBRANCH  10  25
ENDBRANCH   7  10
ENDBRANCH   5   6
BRANCH   5  30
ATOM     30  CB  LEU A   4      24.427 -15.766  -6.473  0.00  0.00    +0.029 C 
BRANCH  30  31
ATOM     31  CG  LEU A   4      24.232 -14.254  -6.629  0.00  0.00    +0.002 C 
ATOM     32  CD2 LEU A   4      22.766 -13.909  -6.896  0.00  0.00    +0.000 C 
ATOM     33  CD1 LEU A   4      25.154 -13.729  -7.741  0.00  0.00    +0.000 C 
ENDBRANCH  30  31
ENDBRANCH   5  30
ENDBRANCH   3   5
BRANCH   1  34
ATOM     34  CA  PHE A   3      24.450 -15.838  -1.495  0.00  0.00    +0.153 C 
BRANCH  34  36
ATOM     35  C   SER A   2      26.575 -17.011  -1.680  0.00  0.00    +0.243 C 
ATOM     36  N   PHE A   3      25.899 -15.870  -1.505  0.00  0.00    -0.297 N 
ATOM     37  H   PHE A   3      26.426 -14.984  -1.373  0.00  0.00    +0.150 HD
ATOM     38  O   SER A   2      26.017 -18.129  -1.713  0.00  0.00    -0.273 OA
BRANCH  35  39
ATOM     39  CA  SER A   2      28.082 -16.898  -1.822  0.00  0.00    +0.178 C 
BRANCH  39  41
ATOM     40  C   PHE A   1      28.087 -15.744  -3.976  0.00  0.00    +0.239 C 
ATOM     41  N   SER A   2      28.501 -15.800  -2.708  0.00  0.00    -0.295 N 
ATOM     42  H   SER A   2      29.129 -15.057  -2.341  0.00  0.00    +0.150 HD
ATOM     43  O   PHE A   1      27.401 -16.637  -4.495  0.00  0.00    -0.274 OA
BRANCH  40  44
ATOM     44  CA  PHE A   1      28.494 -14.491  -4.773  0.00  0.00    +0.149 C 
BRANCH  44  45
ATOM     45  N   PHE A   1      28.291 -13.296  -3.947  0.00  0.00    -0.238 NA
ATOM     46  H   PHE A   1      29.101 -12.689  -3.706  0.00  0.00    +0.142 HD
ENDBRANCH  44  45
BRANCH  44  47
ATOM     47  CB  PHE A   1      29.955 -14.577  -5.208  0.00  0.00    +0.053 C 
BRANCH  47  48
ATOM     48  CG  PHE A   1      30.235 -15.701  -6.158  0.00  0.00    -0.020 A 
ATOM     49  CD2 PHE A   1      30.596 -16.961  -5.664  0.00  0.00    -0.004 A 
ATOM     50  CE2 PHE A   1      30.855 -18.015  -6.537  0.00  0.00    -0.000 A 
ATOM     51  CZ  PHE A   1      30.738 -17.813  -7.908  0.00  0.00    -0.000 A 
ATOM     52  CE1 PHE A   1      30.394 -16.575  -8.428  0.00  0.00    -0.000 A 
ATOM     53  CD1 PHE A   1      30.127 -15.512  -7.548  0.00  0.00    -0.004 A 
ENDBRANCH  47  48
ENDBRANCH  44  47
ENDBRANCH  40  44
ENDBRANCH  39  41
BRANCH  39  54
ATOM     54  CB  SER A   2      28.736 -16.734  -0.439  0.00  0.00    +0.166 C 
BRANCH  54  55
ATOM     55  OG  SER A   2      30.142 -16.950  -0.537  0.00  0.00    -0.380 OA
ATOM     56  H   SER A   2      30.311 -17.866  -0.872  0.00  0.00    +0.211 HD
ENDBRANCH  54  55
ENDBRANCH  39  54
ENDBRANCH  35  39
ENDBRANCH  34  36
BRANCH  34  57
ATOM     57  CB  PHE A   3      23.943 -14.394  -1.211  0.00  0.00    +0.055 C 
BRANCH  57  58
ATOM     58  CG  PHE A   3      22.491 -14.190  -1.587  0.00  0.00    -0.020 A 
ATOM     59  CD2 PHE A   3      21.463 -14.679  -0.767  0.00  0.00    -0.004 A 
ATOM     60  CE2 PHE A   3      20.127 -14.509  -1.117  0.00  0.00    -0.000 A 
ATOM     61  CZ  PHE A   3      19.811 -13.865  -2.319  0.00  0.00    -0.000 A 
ATOM     62  CE1 PHE A   3      20.833 -13.366  -3.143  0.00  0.00    -0.000 A 
ATOM     63  CD1 PHE A   3      22.161 -13.543  -2.773  0.00  0.00    -0.004 A 
ENDBRANCH  57  58
ENDBRANCH  34  57
ENDBRANCH   1  34
TORSDOF 25
REMARK  Name = ../refined-set-2016/4aia/4aia_pocket.pdb
REMARK  117 active torsions:
REMARK  status: ('A' for Active; 'I' for Inactive)
REMARK    1  A    between atoms: _1  and  _3
REMARK    2  A    between atoms: _3  and  _4
REMARK    3  A    between atoms: _3  and  _6
REMARK    4  A    between atoms: _8  and  _10
REMARK    5  A    between atoms: _10  and  _11
REMARK    6  A    between atoms: _14  and  _16
REMARK    7  A    between atoms: _16  and  _17
REMARK    8  A    between atoms: _16  and  _19
REMARK    9  A    between atoms: _19  and  _20
REMARK   10  A    between atoms: _26  and  _28
REMARK   11  A    between atoms: _28  and  _29
REMARK   12  A    between atoms: _28  and  _31
REMARK   13  A    between atoms: _31  and  _32
REMARK   14  A    between atoms: _37  and  _38
REMARK   15  A    between atoms: _40  and  _42
REMARK   16  A    between atoms: _42  and  _43
REMARK   17  A    between atoms: _42  and  _45
REMARK   18  A    between atoms: _45  and  _46
REMARK   19  A    between atoms: _51  and  _52
REMARK   20  A    between atoms: _54  and  _56
REMARK   21  A    between atoms: _56  and  _57
REMARK   22  A    between atoms: _56  and  _59
REMARK   23  A    between atoms: _59  and  _60
REMARK   24  A    between atoms: _65  and  _67
REMARK   25  A    between atoms: _67  and  _68
REMARK   26  A    between atoms: _67  and  _70
REMARK   27  A    between atoms: _73  and  _75
REMARK   28  A    between atoms: _75  and  _76
REMARK   29  A    between atoms: _75  and  _78
REMARK   30  A    between atoms: _78  and  _79
REMARK   31  A    between atoms: _89  and  _91
REMARK   32  A    between atoms: _91  and  _92
REMARK   33  A    between atoms: _94  and  _96
REMARK   34  A    between atoms: _96  and  _97
REMARK   35  A    between atoms: _96  and  _99
REMARK   36  A    between atoms: _99  and  _100
REMARK   37  A    between atoms: _103  and  _105
REMARK   38  A    between atoms: _105  and  _106
REMARK   39  A    between atoms: _105  and  _108
REMARK   40  A    between atoms: _108  and  _109
REMARK   41  A    between atoms: _112  and  _114
REMARK   42  A    between atoms: _114  and  _115
REMARK   43  A    between atoms: _114  and  _117
REMARK   44  A    between atoms: _117  and  _118
REMARK   45  A    between atoms: _118  and  _119
REMARK   46  A    between atoms: _122  and  _124
REMARK   47  A    between atoms: _124  and  _125
REMARK   48  A    between atoms: _124  and  _127
REMARK   49  A    between atoms: _127  and  _128
REMARK   50  A    between atoms: _130  and  _132
REMARK   51  A    between atoms: _132  and  _133
REMARK   52  A    between atoms: _132  and  _135
REMARK   53  A    between atoms: _135  and  _136
REMARK   54  A    between atoms: _141  and  _143
REMARK   55  A    between atoms: _143  and  _144
REMARK   56  A    between atoms: _147  and  _149
REMARK   57  A    between atoms: _149  and  _150
REMARK   58  A    between atoms: _149  and  _152
REMARK   59  A    between atoms: _152  and  _153
REMARK   60  A    between atoms: _156  and  _158
REMARK   61  A    between atoms: _158  and  _159
REMARK   62  A    between atoms: _158  and  _161
REMARK   63  A    between atoms: _161  and  _162
REMARK   64  A    between atoms: _164  and  _166
REMARK   65  A    between atoms: _166  and  _167
REMARK   66  A    between atoms: _166  and  _169
REMARK   67  A    between atoms: _169  and  _170
REMARK   68  A    between atoms: _180  and  _182
REMARK   69  A    between atoms: _182  and  _183
REMARK   70  A    between atoms: _182  and  _185
REMARK   71  A    between atoms: _185  and  _186
REMARK   72  A    between atoms: _189  and  _191
REMARK   73  A    between atoms: _191  and  _192
REMARK   74  A    between atoms: _191  and  _194
REMARK   75  A    between atoms: _194  and  _195
REMARK   76  A    between atoms: _198  and  _200
REMARK   77  A    between atoms: _200  and  _201
REMARK   78  A    between atoms: _200  and  _203
REMARK   79  A    between atoms: _203  and  _204
REMARK   80  A    between atoms: _207  and  _209
REMARK   81  A    between atoms: _209  and  _210
REMARK   82  A    between atoms: _209  and  _212
REMARK   83  A    between atoms: _212  and  _213
REMARK   84  A    between atoms: _213  and  _214
REMARK   85  A    between atoms: _214  and  _215
REMARK   86  A    between atoms: _224  and  _226
REMARK   87  A    between atoms: _226  and  _227
REMARK   88  A    between atoms: _226  and  _229
REMARK   89  A    between atoms: _232  and  _234
REMARK   90  A    between atoms: _234  and  _235
REMARK   91  A    between atoms: _234  and  _237
REMARK   92  A    between atoms: _237  and  _238
REMARK   93  A    between atoms: _241  and  _243
REMARK   94  A    between atoms: _243  and  _244
REMARK   95  A    between atoms: _243  and  _246
REMARK   96  A    between atoms: _246  and  _247
REMARK   97  A    between atoms: _253  and  _255
REMARK   98  A    between atoms: _255  and  _256
REMARK   99  A    between atoms: _255  and  _258
REMARK  100  A    between atoms: _258  and  _259
REMARK  101  A    between atoms: _261  and  _263
REMARK  102  A    between atoms: _263  and  _264
REMARK  103  A    between atoms: _263  and  _266
REMARK  104  A    between atoms: _266  and  _267
REMARK  105  A    between atoms: _273  and  _275
REMARK  106  A    between atoms: _275  and  _276
REMARK  107  A    between atoms: _275  and  _278
REMARK  108  A    between atoms: _278  and  _279
REMARK  109  A    between atoms: _282  and  _284
REMARK  110  A    between atoms: _284  and  _285
REMARK  111  A    between atoms: _284  and  _287
REMARK  112  A    between atoms: _287  and  _288
REMARK  113  A    between atoms: _288  and  _289
REMARK  114  A    between atoms: _292  and  _294
REMARK  115  A    between atoms: _294  and  _295
REMARK  116  A    between atoms: _298  and  _300
REMARK  117  A    between atoms: _300  and  _301
REMARK                            x       y       z     vdW  Elec       q    Type
REMARK                         _______ _______ _______ _____ _____    ______ ____
ROOT
ATOM      1  O   HOH     1      33.503 -28.451  -1.719  0.00  0.00    +0.000 OA
ENDROOT
TORSDOF 0
REMARK  Name = ../refined-set-2016/4aia/4aia_pocket.pdb
REMARK  117 active torsions:
REMARK  status: ('A' for Active; 'I' for Inactive)
REMARK    1  A    between atoms: _1  and  _3
REMARK    2  A    between atoms: _3  and  _4
REMARK    3  A    between atoms: _3  and  _6
REMARK    4  A    between atoms: _8  and  _10
REMARK    5  A    between atoms: _10  and  _11
REMARK    6  A    between atoms: _14  and  _16
REMARK    7  A    between atoms: _16  and  _17
REMARK    8  A    between atoms: _16  and  _19
REMARK    9  A    between atoms: _19  and  _20
REMARK   10  A    between atoms: _26  and  _28
REMARK   11  A    between atoms: _28  and  _29
REMARK   12  A    between atoms: _28  and  _31
REMARK   13  A    between atoms: _31  and  _32
REMARK   14  A    between atoms: _37  and  _38
REMARK   15  A    between atoms: _40  and  _42
REMARK   16  A    between atoms: _42  and  _43
REMARK   17  A    between atoms: _42  and  _45
REMARK   18  A    between atoms: _45  and  _46
REMARK   19  A    between atoms: _51  and  _52
REMARK   20  A    between atoms: _54  and  _56
REMARK   21  A    between atoms: _56  and  _57
REMARK   22  A    between atoms: _56  and  _59
REMARK   23  A    between atoms: _59  and  _60
REMARK   24  A    between atoms: _65  and  _67
REMARK   25  A    between atoms: _67  and  _68
REMARK   26  A    between atoms: _67  and  _70
REMARK   27  A    between atoms: _73  and  _75
REMARK   28  A    between atoms: _75  and  _76
REMARK   29  A    between atoms: _75  and  _78
REMARK   30  A    between atoms: _78  and  _79
REMARK   31  A    between atoms: _89  and  _91
REMARK   32  A    between atoms: _91  and  _92
REMARK   33  A    between atoms: _94  and  _96
REMARK   34  A    between atoms: _96  and  _97
REMARK   35  A    between atoms: _96  and  _99
REMARK   36  A    between atoms: _99  and  _100
REMARK   37  A    between atoms: _103  and  _105
REMARK   38  A    between atoms: _105  and  _106
REMARK   39  A    between atoms: _105  and  _108
REMARK   40  A    between atoms: _108  and  _109
REMARK   41  A    between atoms: _112  and  _114
REMARK   42  A    between atoms: _114  and  _115
REMARK   43  A    between atoms: _114  and  _117
REMARK   44  A    between atoms: _117  and  _118
REMARK   45  A    between atoms: _118  and  _119
REMARK   46  A    between atoms: _122  and  _124
REMARK   47  A    between atoms: _124  and  _125
REMARK   48  A    between atoms: _124  and  _127
REMARK   49  A    between atoms: _127  and  _128
REMARK   50  A    between atoms: _130  and  _132
REMARK   51  A    between atoms: _132  and  _133
REMARK   52  A    between atoms: _132  and  _135
REMARK   53  A    between atoms: _135  and  _136
REMARK   54  A    between atoms: _141  and  _143
REMARK   55  A    between atoms: _143  and  _144
REMARK   56  A    between atoms: _147  and  _149
REMARK   57  A    between atoms: _149  and  _150
REMARK   58  A    between atoms: _149  and  _152
REMARK   59  A    between atoms: _152  and  _153
REMARK   60  A    between atoms: _156  and  _158
REMARK   61  A    between atoms: _158  and  _159
REMARK   62  A    between atoms: _158  and  _161
REMARK   63  A    between atoms: _161  and  _162
REMARK   64  A    between atoms: _164  and  _166
REMARK   65  A    between atoms: _166  and  _167
REMARK   66  A    between atoms: _166  and  _169
REMARK   67  A    between atoms: _169  and  _170
REMARK   68  A    between atoms: _180  and  _182
REMARK   69  A    between atoms: _182  and  _183
REMARK   70  A    between atoms: _182  and  _185
REMARK   71  A    between atoms: _185  and  _186
REMARK   72  A    between atoms: _189  and  _191
REMARK   73  A    between atoms: _191  and  _192
REMARK   74  A    between atoms: _191  and  _194
REMARK   75  A    between atoms: _194  and  _195
REMARK   76  A    between atoms: _198  and  _200
REMARK   77  A    between atoms: _200  and  _201
REMARK   78  A    between atoms: _200  and  _203
REMARK   79  A    between atoms: _203  and  _204
REMARK   80  A    between atoms: _207  and  _209
REMARK   81  A    between atoms: _209  and  _210
REMARK   82  A    between atoms: _209  and  _212
REMARK   83  A    between atoms: _212  and  _213
REMARK   84  A    between atoms: _213  and  _214
REMARK   85  A    between atoms: _214  and  _215
REMARK   86  A    between atoms: _224  and  _226
REMARK   87  A    between atoms: _226  and  _227
REMARK   88  A    between atoms: _226  and  _229
REMARK   89  A    between atoms: _232  and  _234
REMARK   90  A    between atoms: _234  and  _235
REMARK   91  A    between atoms: _234  and  _237
REMARK   92  A    between atoms: _237  and  _238
REMARK   93  A    between atoms: _241  and  _243
REMARK   94  A    between atoms: _243  and  _244
REMARK   95  A    between atoms: _243  and  _246
REMARK   96  A    between atoms: _246  and  _247
REMARK   97  A    between atoms: _253  and  _255
REMARK   98  A    between atoms: _255  and  _256
REMARK   99  A    between atoms: _255  and  _258
REMARK  100  A    between atoms: _258  and  _259
REMARK  101  A    between atoms: _261  and  _263
REMARK  102  A    between atoms: _263  and  _264
REMARK  103  A    between atoms: _263  and  _266
REMARK  104  A    between atoms: _266  and  _267
REMARK  105  A    between atoms: _273  and  _275
REMARK  106  A    between atoms: _275  and  _276
REMARK  107  A    between atoms: _275  and  _278
REMARK  108  A    between atoms: _278  and  _279
REMARK  109  A    between atoms: _282  and  _284
REMARK  110  A    between atoms: _284  and  _285
REMARK  111  A    between atoms: _284  and  _287
REMARK  112  A    between atoms: _287  and  _288
REMARK  113  A    between atoms: _288  and  _289
REMARK  114  A    between atoms: _292  and  _294
REMARK  115  A    between atoms: _294  and  _295
REMARK  116  A    between atoms: _298  and  _300
REMARK  117  A    between atoms: _300  and  _301
REMARK                            x       y       z     vdW  Elec       q    Type
REMARK                         _______ _______ _______ _____ _____    ______ ____
ROOT
ATOM      1  O   HOH     1      21.373 -19.918   5.346  0.00  0.00    +0.000 OA
ENDROOT
TORSDOF 0
REMARK  Name = ../refined-set-2016/4aia/4aia_pocket.pdb
REMARK  117 active torsions:
REMARK  status: ('A' for Active; 'I' for Inactive)
REMARK    1  A    between atoms: _1  and  _3
REMARK    2  A    between atoms: _3  and  _4
REMARK    3  A    between atoms: _3  and  _6
REMARK    4  A    between atoms: _8  and  _10
REMARK    5  A    between atoms: _10  and  _11
REMARK    6  A    between atoms: _14  and  _16
REMARK    7  A    between atoms: _16  and  _17
REMARK    8  A    between atoms: _16  and  _19
REMARK    9  A    between atoms: _19  and  _20
REMARK   10  A    between atoms: _26  and  _28
REMARK   11  A    between atoms: _28  and  _29
REMARK   12  A    between atoms: _28  and  _31
REMARK   13  A    between atoms: _31  and  _32
REMARK   14  A    between atoms: _37  and  _38
REMARK   15  A    between atoms: _40  and  _42
REMARK   16  A    between atoms: _42  and  _43
REMARK   17  A    between atoms: _42  and  _45
REMARK   18  A    between atoms: _45  and  _46
REMARK   19  A    between atoms: _51  and  _52
REMARK   20  A    between atoms: _54  and  _56
REMARK   21  A    between atoms: _56  and  _57
REMARK   22  A    between atoms: _56  and  _59
REMARK   23  A    between atoms: _59  and  _60
REMARK   24  A    between atoms: _65  and  _67
REMARK   25  A    between atoms: _67  and  _68
REMARK   26  A    between atoms: _67  and  _70
REMARK   27  A    between atoms: _73  and  _75
REMARK   28  A    between atoms: _75  and  _76
REMARK   29  A    between atoms: _75  and  _78
REMARK   30  A    between atoms: _78  and  _79
REMARK   31  A    between atoms: _89  and  _91
REMARK   32  A    between atoms: _91  and  _92
REMARK   33  A    between atoms: _94  and  _96
REMARK   34  A    between atoms: _96  and  _97
REMARK   35  A    between atoms: _96  and  _99
REMARK   36  A    between atoms: _99  and  _100
REMARK   37  A    between atoms: _103  and  _105
REMARK   38  A    between atoms: _105  and  _106
REMARK   39  A    between atoms: _105  and  _108
REMARK   40  A    between atoms: _108  and  _109
REMARK   41  A    between atoms: _112  and  _114
REMARK   42  A    between atoms: _114  and  _115
REMARK   43  A    between atoms: _114  and  _117
REMARK   44  A    between atoms: _117  and  _118
REMARK   45  A    between atoms: _118  and  _119
REMARK   46  A    between atoms: _122  and  _124
REMARK   47  A    between atoms: _124  and  _125
REMARK   48  A    between atoms: _124  and  _127
REMARK   49  A    between atoms: _127  and  _128
REMARK   50  A    between atoms: _130  and  _132
REMARK   51  A    between atoms: _132  and  _133
REMARK   52  A    between atoms: _132  and  _135
REMARK   53  A    between atoms: _135  and  _136
REMARK   54  A    between atoms: _141  and  _143
REMARK   55  A    between atoms: _143  and  _144
REMARK   56  A    between atoms: _147  and  _149
REMARK   57  A    between atoms: _149  and  _150
REMARK   58  A    between atoms: _149  and  _152
REMARK   59  A    between atoms: _152  and  _153
REMARK   60  A    between atoms: _156  and  _158
REMARK   61  A    between atoms: _158  and  _159
REMARK   62  A    between atoms: _158  and  _161
REMARK   63  A    between atoms: _161  and  _162
REMARK   64  A    between atoms: _164  and  _166
REMARK   65  A    between atoms: _166  and  _167
REMARK   66  A    between atoms: _166  and  _169
REMARK   67  A    between atoms: _169  and  _170
REMARK   68  A    between atoms: _180  and  _182
REMARK   69  A    between atoms: _182  and  _183
REMARK   70  A    between atoms: _182  and  _185
REMARK   71  A    between atoms: _185  and  _186
REMARK   72  A    between atoms: _189  and  _191
REMARK   73  A    between atoms: _191  and  _192
REMARK   74  A    between atoms: _191  and  _194
REMARK   75  A    between atoms: _194  and  _195
REMARK   76  A    between atoms: _198  and  _200
REMARK   77  A    between atoms: _200  and  _201
REMARK   78  A    between atoms: _200  and  _203
REMARK   79  A    between atoms: _203  and  _204
REMARK   80  A    between atoms: _207  and  _209
REMARK   81  A    between atoms: _209  and  _210
REMARK   82  A    between atoms: _209  and  _212
REMARK   83  A    between atoms: _212  and  _213
REMARK   84  A    between atoms: _213  and  _214
REMARK   85  A    between atoms: _214  and  _215
REMARK   86  A    between atoms: _224  and  _226
REMARK   87  A    between atoms: _226  and  _227
REMARK   88  A    between atoms: _226  and  _229
REMARK   89  A    between atoms: _232  and  _234
REMARK   90  A    between atoms: _234  and  _235
REMARK   91  A    between atoms: _234  and  _237
REMARK   92  A    between atoms: _237  and  _238
REMARK   93  A    between atoms: _241  and  _243
REMARK   94  A    between atoms: _243  and  _244
REMARK   95  A    between atoms: _243  and  _246
REMARK   96  A    between atoms: _246  and  _247
REMARK   97  A    between atoms: _253  and  _255
REMARK   98  A    between atoms: _255  and  _256
REMARK   99  A    between atoms: _255  and  _258
REMARK  100  A    between atoms: _258  and  _259
REMARK  101  A    between atoms: _261  and  _263
REMARK  102  A    between atoms: _263  and  _264
REMARK  103  A    between atoms: _263  and  _266
REMARK  104  A    between atoms: _266  and  _267
REMARK  105  A    between atoms: _273  and  _275
REMARK  106  A    between atoms: _275  and  _276
REMARK  107  A    between atoms: _275  and  _278
REMARK  108  A    between atoms: _278  and  _279
REMARK  109  A    between atoms: _282  and  _284
REMARK  110  A    between atoms: _284  and  _285
REMARK  111  A    between atoms: _284  and  _287
REMARK  112  A    between atoms: _287  and  _288
REMARK  113  A    between atoms: _288  and  _289
REMARK  114  A    between atoms: _292  and  _294
REMARK  115  A    between atoms: _294  and  _295
REMARK  116  A    between atoms: _298  and  _300
REMARK  117  A    between atoms: _300  and  _301
REMARK                            x       y       z     vdW  Elec       q    Type
REMARK                         _______ _______ _______ _____ _____    ______ ____
ROOT
ATOM      1  O   HOH     1      27.829 -29.045   2.760  0.00  0.00    +0.000 OA
ENDROOT
TORSDOF 0
REMARK  Name = ../refined-set-2016/4aia/4aia_pocket.pdb
REMARK  117 active torsions:
REMARK  status: ('A' for Active; 'I' for Inactive)
REMARK    1  A    between atoms: _1  and  _3
REMARK    2  A    between atoms: _3  and  _4
REMARK    3  A    between atoms: _3  and  _6
REMARK    4  A    between atoms: _8  and  _10
REMARK    5  A    between atoms: _10  and  _11
REMARK    6  A    between atoms: _14  and  _16
REMARK    7  A    between atoms: _16  and  _17
REMARK    8  A    between atoms: _16  and  _19
REMARK    9  A    between atoms: _19  and  _20
REMARK   10  A    between atoms: _26  and  _28
REMARK   11  A    between atoms: _28  and  _29
REMARK   12  A    between atoms: _28  and  _31
REMARK   13  A    between atoms: _31  and  _32
REMARK   14  A    between atoms: _37  and  _38
REMARK   15  A    between atoms: _40  and  _42
REMARK   16  A    between atoms: _42  and  _43
REMARK   17  A    between atoms: _42  and  _45
REMARK   18  A    between atoms: _45  and  _46
REMARK   19  A    between atoms: _51  and  _52
REMARK   20  A    between atoms: _54  and  _56
REMARK   21  A    between atoms: _56  and  _57
REMARK   22  A    between atoms: _56  and  _59
REMARK   23  A    between atoms: _59  and  _60
REMARK   24  A    between atoms: _65  and  _67
REMARK   25  A    between atoms: _67  and  _68
REMARK   26  A    between atoms: _67  and  _70
REMARK   27  A    between atoms: _73  and  _75
REMARK   28  A    between atoms: _75  and  _76
REMARK   29  A    between atoms: _75  and  _78
REMARK   30  A    between atoms: _78  and  _79
REMARK   31  A    between atoms: _89  and  _91
REMARK   32  A    between atoms: _91  and  _92
REMARK   33  A    between atoms: _94  and  _96
REMARK   34  A    between atoms: _96  and  _97
REMARK   35  A    between atoms: _96  and  _99
REMARK   36  A    between atoms: _99  and  _100
REMARK   37  A    between atoms: _103  and  _105
REMARK   38  A    between atoms: _105  and  _106
REMARK   39  A    between atoms: _105  and  _108
REMARK   40  A    between atoms: _108  and  _109
REMARK   41  A    between atoms: _112  and  _114
REMARK   42  A    between atoms: _114  and  _115
REMARK   43  A    between atoms: _114  and  _117
REMARK   44  A    between atoms: _117  and  _118
REMARK   45  A    between atoms: _118  and  _119
REMARK   46  A    between atoms: _122  and  _124
REMARK   47  A    between atoms: _124  and  _125
REMARK   48  A    between atoms: _124  and  _127
REMARK   49  A    between atoms: _127  and  _128
REMARK   50  A    between atoms: _130  and  _132
REMARK   51  A    between atoms: _132  and  _133
REMARK   52  A    between atoms: _132  and  _135
REMARK   53  A    between atoms: _135  and  _136
REMARK   54  A    between atoms: _141  and  _143
REMARK   55  A    between atoms: _143  and  _144
REMARK   56  A    between atoms: _147  and  _149
REMARK   57  A    between atoms: _149  and  _150
REMARK   58  A    between atoms: _149  and  _152
REMARK   59  A    between atoms: _152  and  _153
REMARK   60  A    between atoms: _156  and  _158
REMARK   61  A    between atoms: _158  and  _159
REMARK   62  A    between atoms: _158  and  _161
REMARK   63  A    between atoms: _161  and  _162
REMARK   64  A    between atoms: _164  and  _166
REMARK   65  A    between atoms: _166  and  _167
REMARK   66  A    between atoms: _166  and  _169
REMARK   67  A    between atoms: _169  and  _170
REMARK   68  A    between atoms: _180  and  _182
REMARK   69  A    between atoms: _182  and  _183
REMARK   70  A    between atoms: _182  and  _185
REMARK   71  A    between atoms: _185  and  _186
REMARK   72  A    between atoms: _189  and  _191
REMARK   73  A    between atoms: _191  and  _192
REMARK   74  A    between atoms: _191  and  _194
REMARK   75  A    between atoms: _194  and  _195
REMARK   76  A    between atoms: _198  and  _200
REMARK   77  A    between atoms: _200  and  _201
REMARK   78  A    between atoms: _200  and  _203
REMARK   79  A    between atoms: _203  and  _204
REMARK   80  A    between atoms: _207  and  _209
REMARK   81  A    between atoms: _209  and  _210
REMARK   82  A    between atoms: _209  and  _212
REMARK   83  A    between atoms: _212  and  _213
REMARK   84  A    between atoms: _213  and  _214
REMARK   85  A    between atoms: _214  and  _215
REMARK   86  A    between atoms: _224  and  _226
REMARK   87  A    between atoms: _226  and  _227
REMARK   88  A    between atoms: _226  and  _229
REMARK   89  A    between atoms: _232  and  _234
REMARK   90  A    between atoms: _234  and  _235
REMARK   91  A    between atoms: _234  and  _237
REMARK   92  A    between atoms: _237  and  _238
REMARK   93  A    between atoms: _241  and  _243
REMARK   94  A    between atoms: _243  and  _244
REMARK   95  A    between atoms: _243  and  _246
REMARK   96  A    between atoms: _246  and  _247
REMARK   97  A    between atoms: _253  and  _255
REMARK   98  A    between atoms: _255  and  _256
REMARK   99  A    between atoms: _255  and  _258
REMARK  100  A    between atoms: _258  and  _259
REMARK  101  A    between atoms: _261  and  _263
REMARK  102  A    between atoms: _263  and  _264
REMARK  103  A    between atoms: _263  and  _266
REMARK  104  A    between atoms: _266  and  _267
REMARK  105  A    between atoms: _273  and  _275
REMARK  106  A    between atoms: _275  and  _276
REMARK  107  A    between atoms: _275  and  _278
REMARK  108  A    between atoms: _278  and  _279
REMARK  109  A    between atoms: _282  and  _284
REMARK  110  A    between atoms: _284  and  _285
REMARK  111  A    between atoms: _284  and  _287
REMARK  112  A    between atoms: _287  and  _288
REMARK  113  A    between atoms: _288  and  _289
REMARK  114  A    between atoms: _292  and  _294
REMARK  115  A    between atoms: _294  and  _295
REMARK  116  A    between atoms: _298  and  _300
REMARK  117  A    between atoms: _300  and  _301
REMARK                            x       y       z     vdW  Elec       q    Type
REMARK                         _______ _______ _______ _____ _____    ______ ____
ROOT
ATOM      1  O   HOH     1      32.598 -25.094   4.678  0.00  0.00    +0.000 OA
ENDROOT
TORSDOF 0
REMARK  Name = ../refined-set-2016/4aia/4aia_pocket.pdb
REMARK  117 active torsions:
REMARK  status: ('A' for Active; 'I' for Inactive)
REMARK    1  A    between atoms: _1  and  _3
REMARK    2  A    between atoms: _3  and  _4
REMARK    3  A    between atoms: _3  and  _6
REMARK    4  A    between atoms: _8  and  _10
REMARK    5  A    between atoms: _10  and  _11
REMARK    6  A    between atoms: _14  and  _16
REMARK    7  A    between atoms: _16  and  _17
REMARK    8  A    between atoms: _16  and  _19
REMARK    9  A    between atoms: _19  and  _20
REMARK   10  A    between atoms: _26  and  _28
REMARK   11  A    between atoms: _28  and  _29
REMARK   12  A    between atoms: _28  and  _31
REMARK   13  A    between atoms: _31  and  _32
REMARK   14  A    between atoms: _37  and  _38
REMARK   15  A    between atoms: _40  and  _42
REMARK   16  A    between atoms: _42  and  _43
REMARK   17  A    between atoms: _42  and  _45
REMARK   18  A    between atoms: _45  and  _46
REMARK   19  A    between atoms: _51  and  _52
REMARK   20  A    between atoms: _54  and  _56
REMARK   21  A    between atoms: _56  and  _57
REMARK   22  A    between atoms: _56  and  _59
REMARK   23  A    between atoms: _59  and  _60
REMARK   24  A    between atoms: _65  and  _67
REMARK   25  A    between atoms: _67  and  _68
REMARK   26  A    between atoms: _67  and  _70
REMARK   27  A    between atoms: _73  and  _75
REMARK   28  A    between atoms: _75  and  _76
REMARK   29  A    between atoms: _75  and  _78
REMARK   30  A    between atoms: _78  and  _79
REMARK   31  A    between atoms: _89  and  _91
REMARK   32  A    between atoms: _91  and  _92
REMARK   33  A    between atoms: _94  and  _96
REMARK   34  A    between atoms: _96  and  _97
REMARK   35  A    between atoms: _96  and  _99
REMARK   36  A    between atoms: _99  and  _100
REMARK   37  A    between atoms: _103  and  _105
REMARK   38  A    between atoms: _105  and  _106
REMARK   39  A    between atoms: _105  and  _108
REMARK   40  A    between atoms: _108  and  _109
REMARK   41  A    between atoms: _112  and  _114
REMARK   42  A    between atoms: _114  and  _115
REMARK   43  A    between atoms: _114  and  _117
REMARK   44  A    between atoms: _117  and  _118
REMARK   45  A    between atoms: _118  and  _119
REMARK   46  A    between atoms: _122  and  _124
REMARK   47  A    between atoms: _124  and  _125
REMARK   48  A    between atoms: _124  and  _127
REMARK   49  A    between atoms: _127  and  _128
REMARK   50  A    between atoms: _130  and  _132
REMARK   51  A    between atoms: _132  and  _133
REMARK   52  A    between atoms: _132  and  _135
REMARK   53  A    between atoms: _135  and  _136
REMARK   54  A    between atoms: _141  and  _143
REMARK   55  A    between atoms: _143  and  _144
REMARK   56  A    between atoms: _147  and  _149
REMARK   57  A    between atoms: _149  and  _150
REMARK   58  A    between atoms: _149  and  _152
REMARK   59  A    between atoms: _152  and  _153
REMARK   60  A    between atoms: _156  and  _158
REMARK   61  A    between atoms: _158  and  _159
REMARK   62  A    between atoms: _158  and  _161
REMARK   63  A    between atoms: _161  and  _162
REMARK   64  A    between atoms: _164  and  _166
REMARK   65  A    between atoms: _166  and  _167
REMARK   66  A    between atoms: _166  and  _169
REMARK   67  A    between atoms: _169  and  _170
REMARK   68  A    between atoms: _180  and  _182
REMARK   69  A    between atoms: _182  and  _183
REMARK   70  A    between atoms: _182  and  _185
REMARK   71  A    between atoms: _185  and  _186
REMARK   72  A    between atoms: _189  and  _191
REMARK   73  A    between atoms: _191  and  _192
REMARK   74  A    between atoms: _191  and  _194
REMARK   75  A    between atoms: _194  and  _195
REMARK   76  A    between atoms: _198  and  _200
REMARK   77  A    between atoms: _200  and  _201
REMARK   78  A    between atoms: _200  and  _203
REMARK   79  A    between atoms: _203  and  _204
REMARK   80  A    between atoms: _207  and  _209
REMARK   81  A    between atoms: _209  and  _210
REMARK   82  A    between atoms: _209  and  _212
REMARK   83  A    between atoms: _212  and  _213
REMARK   84  A    between atoms: _213  and  _214
REMARK   85  A    between atoms: _214  and  _215
REMARK   86  A    between atoms: _224  and  _226
REMARK   87  A    between atoms: _226  and  _227
REMARK   88  A    between atoms: _226  and  _229
REMARK   89  A    between atoms: _232  and  _234
REMARK   90  A    between atoms: _234  and  _235
REMARK   91  A    between atoms: _234  and  _237
REMARK   92  A    between atoms: _237  and  _238
REMARK   93  A    between atoms: _241  and  _243
REMARK   94  A    between atoms: _243  and  _244
REMARK   95  A    between atoms: _243  and  _246
REMARK   96  A    between atoms: _246  and  _247
REMARK   97  A    between atoms: _253  and  _255
REMARK   98  A    between atoms: _255  and  _256
REMARK   99  A    between atoms: _255  and  _258
REMARK  100  A    between atoms: _258  and  _259
REMARK  101  A    between atoms: _261  and  _263
REMARK  102  A    between atoms: _263  and  _264
REMARK  103  A    between atoms: _263  and  _266
REMARK  104  A    between atoms: _266  and  _267
REMARK  105  A    between atoms: _273  and  _275
REMARK  106  A    between atoms: _275  and  _276
REMARK  107  A    between atoms: _275  and  _278
REMARK  108  A    between atoms: _278  and  _279
REMARK  109  A    between atoms: _282  and  _284
REMARK  110  A    between atoms: _284  and  _285
REMARK  111  A    between atoms: _284  and  _287
REMARK  112  A    between atoms: _287  and  _288
REMARK  113  A    between atoms: _288  and  _289
REMARK  114  A    between atoms: _292  and  _294
REMARK  115  A    between atoms: _294  and  _295
REMARK  116  A    between atoms: _298  and  _300
REMARK  117  A    between atoms: _300  and  _301
REMARK                            x       y       z     vdW  Elec       q    Type
REMARK                         _______ _______ _______ _____ _____    ______ ____
ROOT
ATOM      1  O   HOH     1      34.251 -17.384  -0.643  0.00  0.00    +0.000 OA
ENDROOT
TORSDOF 0
REMARK  Name = ../refined-set-2016/4aia/4aia_pocket.pdb
REMARK  117 active torsions:
REMARK  status: ('A' for Active; 'I' for Inactive)
REMARK    1  A    between atoms: _1  and  _3
REMARK    2  A    between atoms: _3  and  _4
REMARK    3  A    between atoms: _3  and  _6
REMARK    4  A    between atoms: _8  and  _10
REMARK    5  A    between atoms: _10  and  _11
REMARK    6  A    between atoms: _14  and  _16
REMARK    7  A    between atoms: _16  and  _17
REMARK    8  A    between atoms: _16  and  _19
REMARK    9  A    between atoms: _19  and  _20
REMARK   10  A    between atoms: _26  and  _28
REMARK   11  A    between atoms: _28  and  _29
REMARK   12  A    between atoms: _28  and  _31
REMARK   13  A    between atoms: _31  and  _32
REMARK   14  A    between atoms: _37  and  _38
REMARK   15  A    between atoms: _40  and  _42
REMARK   16  A    between atoms: _42  and  _43
REMARK   17  A    between atoms: _42  and  _45
REMARK   18  A    between atoms: _45  and  _46
REMARK   19  A    between atoms: _51  and  _52
REMARK   20  A    between atoms: _54  and  _56
REMARK   21  A    between atoms: _56  and  _57
REMARK   22  A    between atoms: _56  and  _59
REMARK   23  A    between atoms: _59  and  _60
REMARK   24  A    between atoms: _65  and  _67
REMARK   25  A    between atoms: _67  and  _68
REMARK   26  A    between atoms: _67  and  _70
REMARK   27  A    between atoms: _73  and  _75
REMARK   28  A    between atoms: _75  and  _76
REMARK   29  A    between atoms: _75  and  _78
REMARK   30  A    between atoms: _78  and  _79
REMARK   31  A    between atoms: _89  and  _91
REMARK   32  A    between atoms: _91  and  _92
REMARK   33  A    between atoms: _94  and  _96
REMARK   34  A    between atoms: _96  and  _97
REMARK   35  A    between atoms: _96  and  _99
REMARK   36  A    between atoms: _99  and  _100
REMARK   37  A    between atoms: _103  and  _105
REMARK   38  A    between atoms: _105  and  _106
REMARK   39  A    between atoms: _105  and  _108
REMARK   40  A    between atoms: _108  and  _109
REMARK   41  A    between atoms: _112  and  _114
REMARK   42  A    between atoms: _114  and  _115
REMARK   43  A    between atoms: _114  and  _117
REMARK   44  A    between atoms: _117  and  _118
REMARK   45  A    between atoms: _118  and  _119
REMARK   46  A    between atoms: _122  and  _124
REMARK   47  A    between atoms: _124  and  _125
REMARK   48  A    between atoms: _124  and  _127
REMARK   49  A    between atoms: _127  and  _128
REMARK   50  A    between atoms: _130  and  _132
REMARK   51  A    between atoms: _132  and  _133
REMARK   52  A    between atoms: _132  and  _135
REMARK   53  A    between atoms: _135  and  _136
REMARK   54  A    between atoms: _141  and  _143
REMARK   55  A    between atoms: _143  and  _144
REMARK   56  A    between atoms: _147  and  _149
REMARK   57  A    between atoms: _149  and  _150
REMARK   58  A    between atoms: _149  and  _152
REMARK   59  A    between atoms: _152  and  _153
REMARK   60  A    between atoms: _156  and  _158
REMARK   61  A    between atoms: _158  and  _159
REMARK   62  A    between atoms: _158  and  _161
REMARK   63  A    between atoms: _161  and  _162
REMARK   64  A    between atoms: _164  and  _166
REMARK   65  A    between atoms: _166  and  _167
REMARK   66  A    between atoms: _166  and  _169
REMARK   67  A    between atoms: _169  and  _170
REMARK   68  A    between atoms: _180  and  _182
REMARK   69  A    between atoms: _182  and  _183
REMARK   70  A    between atoms: _182  and  _185
REMARK   71  A    between atoms: _185  and  _186
REMARK   72  A    between atoms: _189  and  _191
REMARK   73  A    between atoms: _191  and  _192
REMARK   74  A    between atoms: _191  and  _194
REMARK   75  A    between atoms: _194  and  _195
REMARK   76  A    between atoms: _198  and  _200
REMARK   77  A    between atoms: _200  and  _201
REMARK   78  A    between atoms: _200  and  _203
REMARK   79  A    between atoms: _203  and  _204
REMARK   80  A    between atoms: _207  and  _209
REMARK   81  A    between atoms: _209  and  _210
REMARK   82  A    between atoms: _209  and  _212
REMARK   83  A    between atoms: _212  and  _213
REMARK   84  A    between atoms: _213  and  _214
REMARK   85  A    between atoms: _214  and  _215
REMARK   86  A    between atoms: _224  and  _226
REMARK   87  A    between atoms: _226  and  _227
REMARK   88  A    between atoms: _226  and  _229
REMARK   89  A    between atoms: _232  and  _234
REMARK   90  A    between atoms: _234  and  _235
REMARK   91  A    between atoms: _234  and  _237
REMARK   92  A    between atoms: _237  and  _238
REMARK   93  A    between atoms: _241  and  _243
REMARK   94  A    between atoms: _243  and  _244
REMARK   95  A    between atoms: _243  and  _246
REMARK   96  A    between atoms: _246  and  _247
REMARK   97  A    between atoms: _253  and  _255
REMARK   98  A    between atoms: _255  and  _256
REMARK   99  A    between atoms: _255  and  _258
REMARK  100  A    between atoms: _258  and  _259
REMARK  101  A    between atoms: _261  and  _263
REMARK  102  A    between atoms: _263  and  _264
REMARK  103  A    between atoms: _263  and  _266
REMARK  104  A    between atoms: _266  and  _267
REMARK  105  A    between atoms: _273  and  _275
REMARK  106  A    between atoms: _275  and  _276
REMARK  107  A    between atoms: _275  and  _278
REMARK  108  A    between atoms: _278  and  _279
REMARK  109  A    between atoms: _282  and  _284
REMARK  110  A    between atoms: _284  and  _285
REMARK  111  A    between atoms: _284  and  _287
REMARK  112  A    between atoms: _287  and  _288
REMARK  113  A    between atoms: _288  and  _289
REMARK  114  A    between atoms: _292  and  _294
REMARK  115  A    between atoms: _294  and  _295
REMARK  116  A    between atoms: _298  and  _300
REMARK  117  A    between atoms: _300  and  _301
REMARK                            x       y       z     vdW  Elec       q    Type
REMARK                         _______ _______ _______ _____ _____    ______ ____
ROOT
ATOM      1  O   HOH     1      22.454 -19.897   2.930  0.00  0.00    +0.000 OA
ENDROOT
TORSDOF 0
REMARK  Name = ../refined-set-2016/4aia/4aia_pocket.pdb
REMARK  117 active torsions:
REMARK  status: ('A' for Active; 'I' for Inactive)
REMARK    1  A    between atoms: _1  and  _3
REMARK    2  A    between atoms: _3  and  _4
REMARK    3  A    between atoms: _3  and  _6
REMARK    4  A    between atoms: _8  and  _10
REMARK    5  A    between atoms: _10  and  _11
REMARK    6  A    between atoms: _14  and  _16
REMARK    7  A    between atoms: _16  and  _17
REMARK    8  A    between atoms: _16  and  _19
REMARK    9  A    between atoms: _19  and  _20
REMARK   10  A    between atoms: _26  and  _28
REMARK   11  A    between atoms: _28  and  _29
REMARK   12  A    between atoms: _28  and  _31
REMARK   13  A    between atoms: _31  and  _32
REMARK   14  A    between atoms: _37  and  _38
REMARK   15  A    between atoms: _40  and  _42
REMARK   16  A    between atoms: _42  and  _43
REMARK   17  A    between atoms: _42  and  _45
REMARK   18  A    between atoms: _45  and  _46
REMARK   19  A    between atoms: _51  and  _52
REMARK   20  A    between atoms: _54  and  _56
REMARK   21  A    between atoms: _56  and  _57
REMARK   22  A    between atoms: _56  and  _59
REMARK   23  A    between atoms: _59  and  _60
REMARK   24  A    between atoms: _65  and  _67
REMARK   25  A    between atoms: _67  and  _68
REMARK   26  A    between atoms: _67  and  _70
REMARK   27  A    between atoms: _73  and  _75
REMARK   28  A    between atoms: _75  and  _76
REMARK   29  A    between atoms: _75  and  _78
REMARK   30  A    between atoms: _78  and  _79
REMARK   31  A    between atoms: _89  and  _91
REMARK   32  A    between atoms: _91  and  _92
REMARK   33  A    between atoms: _94  and  _96
REMARK   34  A    between atoms: _96  and  _97
REMARK   35  A    between atoms: _96  and  _99
REMARK   36  A    between atoms: _99  and  _100
REMARK   37  A    between atoms: _103  and  _105
REMARK   38  A    between atoms: _105  and  _106
REMARK   39  A    between atoms: _105  and  _108
REMARK   40  A    between atoms: _108  and  _109
REMARK   41  A    between atoms: _112  and  _114
REMARK   42  A    between atoms: _114  and  _115
REMARK   43  A    between atoms: _114  and  _117
REMARK   44  A    between atoms: _117  and  _118
REMARK   45  A    between atoms: _118  and  _119
REMARK   46  A    between atoms: _122  and  _124
REMARK   47  A    between atoms: _124  and  _125
REMARK   48  A    between atoms: _124  and  _127
REMARK   49  A    between atoms: _127  and  _128
REMARK   50  A    between atoms: _130  and  _132
REMARK   51  A    between atoms: _132  and  _133
REMARK   52  A    between atoms: _132  and  _135
REMARK   53  A    between atoms: _135  and  _136
REMARK   54  A    between atoms: _141  and  _143
REMARK   55  A    between atoms: _143  and  _144
REMARK   56  A    between atoms: _147  and  _149
REMARK   57  A    between atoms: _149  and  _150
REMARK   58  A    between atoms: _149  and  _152
REMARK   59  A    between atoms: _152  and  _153
REMARK   60  A    between atoms: _156  and  _158
REMARK   61  A    between atoms: _158  and  _159
REMARK   62  A    between atoms: _158  and  _161
REMARK   63  A    between atoms: _161  and  _162
REMARK   64  A    between atoms: _164  and  _166
REMARK   65  A    between atoms: _166  and  _167
REMARK   66  A    between atoms: _166  and  _169
REMARK   67  A    between atoms: _169  and  _170
REMARK   68  A    between atoms: _180  and  _182
REMARK   69  A    between atoms: _182  and  _183
REMARK   70  A    between atoms: _182  and  _185
REMARK   71  A    between atoms: _185  and  _186
REMARK   72  A    between atoms: _189  and  _191
REMARK   73  A    between atoms: _191  and  _192
REMARK   74  A    between atoms: _191  and  _194
REMARK   75  A    between atoms: _194  and  _195
REMARK   76  A    between atoms: _198  and  _200
REMARK   77  A    between atoms: _200  and  _201
REMARK   78  A    between atoms: _200  and  _203
REMARK   79  A    between atoms: _203  and  _204
REMARK   80  A    between atoms: _207  and  _209
REMARK   81  A    between atoms: _209  and  _210
REMARK   82  A    between atoms: _209  and  _212
REMARK   83  A    between atoms: _212  and  _213
REMARK   84  A    between atoms: _213  and  _214
REMARK   85  A    between atoms: _214  and  _215
REMARK   86  A    between atoms: _224  and  _226
REMARK   87  A    between atoms: _226  and  _227
REMARK   88  A    between atoms: _226  and  _229
REMARK   89  A    between atoms: _232  and  _234
REMARK   90  A    between atoms: _234  and  _235
REMARK   91  A    between atoms: _234  and  _237
REMARK   92  A    between atoms: _237  and  _238
REMARK   93  A    between atoms: _241  and  _243
REMARK   94  A    between atoms: _243  and  _244
REMARK   95  A    between atoms: _243  and  _246
REMARK   96  A    between atoms: _246  and  _247
REMARK   97  A    between atoms: _253  and  _255
REMARK   98  A    between atoms: _255  and  _256
REMARK   99  A    between atoms: _255  and  _258
REMARK  100  A    between atoms: _258  and  _259
REMARK  101  A    between atoms: _261  and  _263
REMARK  102  A    between atoms: _263  and  _264
REMARK  103  A    between atoms: _263  and  _266
REMARK  104  A    between atoms: _266  and  _267
REMARK  105  A    between atoms: _273  and  _275
REMARK  106  A    between atoms: _275  and  _276
REMARK  107  A    between atoms: _275  and  _278
REMARK  108  A    between atoms: _278  and  _279
REMARK  109  A    between atoms: _282  and  _284
REMARK  110  A    between atoms: _284  and  _285
REMARK  111  A    between atoms: _284  and  _287
REMARK  112  A    between atoms: _287  and  _288
REMARK  113  A    between atoms: _288  and  _289
REMARK  114  A    between atoms: _292  and  _294
REMARK  115  A    between atoms: _294  and  _295
REMARK  116  A    between atoms: _298  and  _300
REMARK  117  A    between atoms: _300  and  _301
REMARK                            x       y       z     vdW  Elec       q    Type
REMARK                         _______ _______ _______ _____ _____    ______ ____
ROOT
ATOM      1  O   HOH     1      27.593 -20.396  -1.050  0.00  0.00    +0.000 OA
ENDROOT
TORSDOF 0
REMARK  Name = ../refined-set-2016/4aia/4aia_pocket.pdb
REMARK  117 active torsions:
REMARK  status: ('A' for Active; 'I' for Inactive)
REMARK    1  A    between atoms: _1  and  _3
REMARK    2  A    between atoms: _3  and  _4
REMARK    3  A    between atoms: _3  and  _6
REMARK    4  A    between atoms: _8  and  _10
REMARK    5  A    between atoms: _10  and  _11
REMARK    6  A    between atoms: _14  and  _16
REMARK    7  A    between atoms: _16  and  _17
REMARK    8  A    between atoms: _16  and  _19
REMARK    9  A    between atoms: _19  and  _20
REMARK   10  A    between atoms: _26  and  _28
REMARK   11  A    between atoms: _28  and  _29
REMARK   12  A    between atoms: _28  and  _31
REMARK   13  A    between atoms: _31  and  _32
REMARK   14  A    between atoms: _37  and  _38
REMARK   15  A    between atoms: _40  and  _42
REMARK   16  A    between atoms: _42  and  _43
REMARK   17  A    between atoms: _42  and  _45
REMARK   18  A    between atoms: _45  and  _46
REMARK   19  A    between atoms: _51  and  _52
REMARK   20  A    between atoms: _54  and  _56
REMARK   21  A    between atoms: _56  and  _57
REMARK   22  A    between atoms: _56  and  _59
REMARK   23  A    between atoms: _59  and  _60
REMARK   24  A    between atoms: _65  and  _67
REMARK   25  A    between atoms: _67  and  _68
REMARK   26  A    between atoms: _67  and  _70
REMARK   27  A    between atoms: _73  and  _75
REMARK   28  A    between atoms: _75  and  _76
REMARK   29  A    between atoms: _75  and  _78
REMARK   30  A    between atoms: _78  and  _79
REMARK   31  A    between atoms: _89  and  _91
REMARK   32  A    between atoms: _91  and  _92
REMARK   33  A    between atoms: _94  and  _96
REMARK   34  A    between atoms: _96  and  _97
REMARK   35  A    between atoms: _96  and  _99
REMARK   36  A    between atoms: _99  and  _100
REMARK   37  A    between atoms: _103  and  _105
REMARK   38  A    between atoms: _105  and  _106
REMARK   39  A    between atoms: _105  and  _108
REMARK   40  A    between atoms: _108  and  _109
REMARK   41  A    between atoms: _112  and  _114
REMARK   42  A    between atoms: _114  and  _115
REMARK   43  A    between atoms: _114  and  _117
REMARK   44  A    between atoms: _117  and  _118
REMARK   45  A    between atoms: _118  and  _119
REMARK   46  A    between atoms: _122  and  _124
REMARK   47  A    between atoms: _124  and  _125
REMARK   48  A    between atoms: _124  and  _127
REMARK   49  A    between atoms: _127  and  _128
REMARK   50  A    between atoms: _130  and  _132
REMARK   51  A    between atoms: _132  and  _133
REMARK   52  A    between atoms: _132  and  _135
REMARK   53  A    between atoms: _135  and  _136
REMARK   54  A    between atoms: _141  and  _143
REMARK   55  A    between atoms: _143  and  _144
REMARK   56  A    between atoms: _147  and  _149
REMARK   57  A    between atoms: _149  and  _150
REMARK   58  A    between atoms: _149  and  _152
REMARK   59  A    between atoms: _152  and  _153
REMARK   60  A    between atoms: _156  and  _158
REMARK   61  A    between atoms: _158  and  _159
REMARK   62  A    between atoms: _158  and  _161
REMARK   63  A    between atoms: _161  and  _162
REMARK   64  A    between atoms: _164  and  _166
REMARK   65  A    between atoms: _166  and  _167
REMARK   66  A    between atoms: _166  and  _169
REMARK   67  A    between atoms: _169  and  _170
REMARK   68  A    between atoms: _180  and  _182
REMARK   69  A    between atoms: _182  and  _183
REMARK   70  A    between atoms: _182  and  _185
REMARK   71  A    between atoms: _185  and  _186
REMARK   72  A    between atoms: _189  and  _191
REMARK   73  A    between atoms: _191  and  _192
REMARK   74  A    between atoms: _191  and  _194
REMARK   75  A    between atoms: _194  and  _195
REMARK   76  A    between atoms: _198  and  _200
REMARK   77  A    between atoms: _200  and  _201
REMARK   78  A    between atoms: _200  and  _203
REMARK   79  A    between atoms: _203  and  _204
REMARK   80  A    between atoms: _207  and  _209
REMARK   81  A    between atoms: _209  and  _210
REMARK   82  A    between atoms: _209  and  _212
REMARK   83  A    between atoms: _212  and  _213
REMARK   84  A    between atoms: _213  and  _214
REMARK   85  A    between atoms: _214  and  _215
REMARK   86  A    between atoms: _224  and  _226
REMARK   87  A    between atoms: _226  and  _227
REMARK   88  A    between atoms: _226  and  _229
REMARK   89  A    between atoms: _232  and  _234
REMARK   90  A    between atoms: _234  and  _235
REMARK   91  A    between atoms: _234  and  _237
REMARK   92  A    between atoms: _237  and  _238
REMARK   93  A    between atoms: _241  and  _243
REMARK   94  A    between atoms: _243  and  _244
REMARK   95  A    between atoms: _243  and  _246
REMARK   96  A    between atoms: _246  and  _247
REMARK   97  A    between atoms: _253  and  _255
REMARK   98  A    between atoms: _255  and  _256
REMARK   99  A    between atoms: _255  and  _258
REMARK  100  A    between atoms: _258  and  _259
REMARK  101  A    between atoms: _261  and  _263
REMARK  102  A    between atoms: _263  and  _264
REMARK  103  A    between atoms: _263  and  _266
REMARK  104  A    between atoms: _266  and  _267
REMARK  105  A    between atoms: _273  and  _275
REMARK  106  A    between atoms: _275  and  _276
REMARK  107  A    between atoms: _275  and  _278
REMARK  108  A    between atoms: _278  and  _279
REMARK  109  A    between atoms: _282  and  _284
REMARK  110  A    between atoms: _284  and  _285
REMARK  111  A    between atoms: _284  and  _287
REMARK  112  A    between atoms: _287  and  _288
REMARK  113  A    between atoms: _288  and  _289
REMARK  114  A    between atoms: _292  and  _294
REMARK  115  A    between atoms: _294  and  _295
REMARK  116  A    between atoms: _298  and  _300
REMARK  117  A    between atoms: _300  and  _301
REMARK                            x       y       z     vdW  Elec       q    Type
REMARK                         _______ _______ _______ _____ _____    ______ ____
ROOT
ATOM      1  O   HOH     1      28.828 -15.394   3.304  0.00  0.00    +0.000 OA
ENDROOT
TORSDOF 0
REMARK  Name = ../refined-set-2016/4aia/4aia_pocket.pdb
REMARK  117 active torsions:
REMARK  status: ('A' for Active; 'I' for Inactive)
REMARK    1  A    between atoms: _1  and  _3
REMARK    2  A    between atoms: _3  and  _4
REMARK    3  A    between atoms: _3  and  _6
REMARK    4  A    between atoms: _8  and  _10
REMARK    5  A    between atoms: _10  and  _11
REMARK    6  A    between atoms: _14  and  _16
REMARK    7  A    between atoms: _16  and  _17
REMARK    8  A    between atoms: _16  and  _19
REMARK    9  A    between atoms: _19  and  _20
REMARK   10  A    between atoms: _26  and  _28
REMARK   11  A    between atoms: _28  and  _29
REMARK   12  A    between atoms: _28  and  _31
REMARK   13  A    between atoms: _31  and  _32
REMARK   14  A    between atoms: _37  and  _38
REMARK   15  A    between atoms: _40  and  _42
REMARK   16  A    between atoms: _42  and  _43
REMARK   17  A    between atoms: _42  and  _45
REMARK   18  A    between atoms: _45  and  _46
REMARK   19  A    between atoms: _51  and  _52
REMARK   20  A    between atoms: _54  and  _56
REMARK   21  A    between atoms: _56  and  _57
REMARK   22  A    between atoms: _56  and  _59
REMARK   23  A    between atoms: _59  and  _60
REMARK   24  A    between atoms: _65  and  _67
REMARK   25  A    between atoms: _67  and  _68
REMARK   26  A    between atoms: _67  and  _70
REMARK   27  A    between atoms: _73  and  _75
REMARK   28  A    between atoms: _75  and  _76
REMARK   29  A    between atoms: _75  and  _78
REMARK   30  A    between atoms: _78  and  _79
REMARK   31  A    between atoms: _89  and  _91
REMARK   32  A    between atoms: _91  and  _92
REMARK   33  A    between atoms: _94  and  _96
REMARK   34  A    between atoms: _96  and  _97
REMARK   35  A    between atoms: _96  and  _99
REMARK   36  A    between atoms: _99  and  _100
REMARK   37  A    between atoms: _103  and  _105
REMARK   38  A    between atoms: _105  and  _106
REMARK   39  A    between atoms: _105  and  _108
REMARK   40  A    between atoms: _108  and  _109
REMARK   41  A    between atoms: _112  and  _114
REMARK   42  A    between atoms: _114  and  _115
REMARK   43  A    between atoms: _114  and  _117
REMARK   44  A    between atoms: _117  and  _118
REMARK   45  A    between atoms: _118  and  _119
REMARK   46  A    between atoms: _122  and  _124
REMARK   47  A    between atoms: _124  and  _125
REMARK   48  A    between atoms: _124  and  _127
REMARK   49  A    between atoms: _127  and  _128
REMARK   50  A    between atoms: _130  and  _132
REMARK   51  A    between atoms: _132  and  _133
REMARK   52  A    between atoms: _132  and  _135
REMARK   53  A    between atoms: _135  and  _136
REMARK   54  A    between atoms: _141  and  _143
REMARK   55  A    between atoms: _143  and  _144
REMARK   56  A    between atoms: _147  and  _149
REMARK   57  A    between atoms: _149  and  _150
REMARK   58  A    between atoms: _149  and  _152
REMARK   59  A    between atoms: _152  and  _153
REMARK   60  A    between atoms: _156  and  _158
REMARK   61  A    between atoms: _158  and  _159
REMARK   62  A    between atoms: _158  and  _161
REMARK   63  A    between atoms: _161  and  _162
REMARK   64  A    between atoms: _164  and  _166
REMARK   65  A    between atoms: _166  and  _167
REMARK   66  A    between atoms: _166  and  _169
REMARK   67  A    between atoms: _169  and  _170
REMARK   68  A    between atoms: _180  and  _182
REMARK   69  A    between atoms: _182  and  _183
REMARK   70  A    between atoms: _182  and  _185
REMARK   71  A    between atoms: _185  and  _186
REMARK   72  A    between atoms: _189  and  _191
REMARK   73  A    between atoms: _191  and  _192
REMARK   74  A    between atoms: _191  and  _194
REMARK   75  A    between atoms: _194  and  _195
REMARK   76  A    between atoms: _198  and  _200
REMARK   77  A    between atoms: _200  and  _201
REMARK   78  A    between atoms: _200  and  _203
REMARK   79  A    between atoms: _203  and  _204
REMARK   80  A    between atoms: _207  and  _209
REMARK   81  A    between atoms: _209  and  _210
REMARK   82  A    between atoms: _209  and  _212
REMARK   83  A    between atoms: _212  and  _213
REMARK   84  A    between atoms: _213  and  _214
REMARK   85  A    between atoms: _214  and  _215
REMARK   86  A    between atoms: _224  and  _226
REMARK   87  A    between atoms: _226  and  _227
REMARK   88  A    between atoms: _226  and  _229
REMARK   89  A    between atoms: _232  and  _234
REMARK   90  A    between atoms: _234  and  _235
REMARK   91  A    between atoms: _234  and  _237
REMARK   92  A    between atoms: _237  and  _238
REMARK   93  A    between atoms: _241  and  _243
REMARK   94  A    between atoms: _243  and  _244
REMARK   95  A    between atoms: _243  and  _246
REMARK   96  A    between atoms: _246  and  _247
REMARK   97  A    between atoms: _253  and  _255
REMARK   98  A    between atoms: _255  and  _256
REMARK   99  A    between atoms: _255  and  _258
REMARK  100  A    between atoms: _258  and  _259
REMARK  101  A    between atoms: _261  and  _263
REMARK  102  A    between atoms: _263  and  _264
REMARK  103  A    between atoms: _263  and  _266
REMARK  104  A    between atoms: _266  and  _267
REMARK  105  A    between atoms: _273  and  _275
REMARK  106  A    between atoms: _275  and  _276
REMARK  107  A    between atoms: _275  and  _278
REMARK  108  A    between atoms: _278  and  _279
REMARK  109  A    between atoms: _282  and  _284
REMARK  110  A    between atoms: _284  and  _285
REMARK  111  A    between atoms: _284  and  _287
REMARK  112  A    between atoms: _287  and  _288
REMARK  113  A    between atoms: _288  and  _289
REMARK  114  A    between atoms: _292  and  _294
REMARK  115  A    between atoms: _294  and  _295
REMARK  116  A    between atoms: _298  and  _300
REMARK  117  A    between atoms: _300  and  _301
REMARK                            x       y       z     vdW  Elec       q    Type
REMARK                         _______ _______ _______ _____ _____    ______ ____
ROOT
ATOM      1  O   HOH     1      30.025 -12.220   5.408  0.00  0.00    +0.000 OA
ENDROOT
TORSDOF 0
REMARK  Name = ../refined-set-2016/4aia/4aia_pocket.pdb
REMARK  117 active torsions:
REMARK  status: ('A' for Active; 'I' for Inactive)
REMARK    1  A    between atoms: _1  and  _3
REMARK    2  A    between atoms: _3  and  _4
REMARK    3  A    between atoms: _3  and  _6
REMARK    4  A    between atoms: _8  and  _10
REMARK    5  A    between atoms: _10  and  _11
REMARK    6  A    between atoms: _14  and  _16
REMARK    7  A    between atoms: _16  and  _17
REMARK    8  A    between atoms: _16  and  _19
REMARK    9  A    between atoms: _19  and  _20
REMARK   10  A    between atoms: _26  and  _28
REMARK   11  A    between atoms: _28  and  _29
REMARK   12  A    between atoms: _28  and  _31
REMARK   13  A    between atoms: _31  and  _32
REMARK   14  A    between atoms: _37  and  _38
REMARK   15  A    between atoms: _40  and  _42
REMARK   16  A    between atoms: _42  and  _43
REMARK   17  A    between atoms: _42  and  _45
REMARK   18  A    between atoms: _45  and  _46
REMARK   19  A    between atoms: _51  and  _52
REMARK   20  A    between atoms: _54  and  _56
REMARK   21  A    between atoms: _56  and  _57
REMARK   22  A    between atoms: _56  and  _59
REMARK   23  A    between atoms: _59  and  _60
REMARK   24  A    between atoms: _65  and  _67
REMARK   25  A    between atoms: _67  and  _68
REMARK   26  A    between atoms: _67  and  _70
REMARK   27  A    between atoms: _73  and  _75
REMARK   28  A    between atoms: _75  and  _76
REMARK   29  A    between atoms: _75  and  _78
REMARK   30  A    between atoms: _78  and  _79
REMARK   31  A    between atoms: _89  and  _91
REMARK   32  A    between atoms: _91  and  _92
REMARK   33  A    between atoms: _94  and  _96
REMARK   34  A    between atoms: _96  and  _97
REMARK   35  A    between atoms: _96  and  _99
REMARK   36  A    between atoms: _99  and  _100
REMARK   37  A    between atoms: _103  and  _105
REMARK   38  A    between atoms: _105  and  _106
REMARK   39  A    between atoms: _105  and  _108
REMARK   40  A    between atoms: _108  and  _109
REMARK   41  A    between atoms: _112  and  _114
REMARK   42  A    between atoms: _114  and  _115
REMARK   43  A    between atoms: _114  and  _117
REMARK   44  A    between atoms: _117  and  _118
REMARK   45  A    between atoms: _118  and  _119
REMARK   46  A    between atoms: _122  and  _124
REMARK   47  A    between atoms: _124  and  _125
REMARK   48  A    between atoms: _124  and  _127
REMARK   49  A    between atoms: _127  and  _128
REMARK   50  A    between atoms: _130  and  _132
REMARK   51  A    between atoms: _132  and  _133
REMARK   52  A    between atoms: _132  and  _135
REMARK   53  A    between atoms: _135  and  _136
REMARK   54  A    between atoms: _141  and  _143
REMARK   55  A    between atoms: _143  and  _144
REMARK   56  A    between atoms: _147  and  _149
REMARK   57  A    between atoms: _149  and  _150
REMARK   58  A    between atoms: _149  and  _152
REMARK   59  A    between atoms: _152  and  _153
REMARK   60  A    between atoms: _156  and  _158
REMARK   61  A    between atoms: _158  and  _159
REMARK   62  A    between atoms: _158  and  _161
REMARK   63  A    between atoms: _161  and  _162
REMARK   64  A    between atoms: _164  and  _166
REMARK   65  A    between atoms: _166  and  _167
REMARK   66  A    between atoms: _166  and  _169
REMARK   67  A    between atoms: _169  and  _170
REMARK   68  A    between atoms: _180  and  _182
REMARK   69  A    between atoms: _182  and  _183
REMARK   70  A    between atoms: _182  and  _185
REMARK   71  A    between atoms: _185  and  _186
REMARK   72  A    between atoms: _189  and  _191
REMARK   73  A    between atoms: _191  and  _192
REMARK   74  A    between atoms: _191  and  _194
REMARK   75  A    between atoms: _194  and  _195
REMARK   76  A    between atoms: _198  and  _200
REMARK   77  A    between atoms: _200  and  _201
REMARK   78  A    between atoms: _200  and  _203
REMARK   79  A    between atoms: _203  and  _204
REMARK   80  A    between atoms: _207  and  _209
REMARK   81  A    between atoms: _209  and  _210
REMARK   82  A    between atoms: _209  and  _212
REMARK   83  A    between atoms: _212  and  _213
REMARK   84  A    between atoms: _213  and  _214
REMARK   85  A    between atoms: _214  and  _215
REMARK   86  A    between atoms: _224  and  _226
REMARK   87  A    between atoms: _226  and  _227
REMARK   88  A    between atoms: _226  and  _229
REMARK   89  A    between atoms: _232  and  _234
REMARK   90  A    between atoms: _234  and  _235
REMARK   91  A    between atoms: _234  and  _237
REMARK   92  A    between atoms: _237  and  _238
REMARK   93  A    between atoms: _241  and  _243
REMARK   94  A    between atoms: _243  and  _244
REMARK   95  A    between atoms: _243  and  _246
REMARK   96  A    between atoms: _246  and  _247
REMARK   97  A    between atoms: _253  and  _255
REMARK   98  A    between atoms: _255  and  _256
REMARK   99  A    between atoms: _255  and  _258
REMARK  100  A    between atoms: _258  and  _259
REMARK  101  A    between atoms: _261  and  _263
REMARK  102  A    between atoms: _263  and  _264
REMARK  103  A    between atoms: _263  and  _266
REMARK  104  A    between atoms: _266  and  _267
REMARK  105  A    between atoms: _273  and  _275
REMARK  106  A    between atoms: _275  and  _276
REMARK  107  A    between atoms: _275  and  _278
REMARK  108  A    between atoms: _278  and  _279
REMARK  109  A    between atoms: _282  and  _284
REMARK  110  A    between atoms: _284  and  _285
REMARK  111  A    between atoms: _284  and  _287
REMARK  112  A    between atoms: _287  and  _288
REMARK  113  A    between atoms: _288  and  _289
REMARK  114  A    between atoms: _292  and  _294
REMARK  115  A    between atoms: _294  and  _295
REMARK  116  A    between atoms: _298  and  _300
REMARK  117  A    between atoms: _300  and  _301
REMARK                            x       y       z     vdW  Elec       q    Type
REMARK                         _______ _______ _______ _____ _____    ______ ____
ROOT
ATOM      1  O   HOH     1      33.302 -16.598   2.006  0.00  0.00    +0.000 OA
ENDROOT
TORSDOF 0
REMARK  Name = ../refined-set-2016/4aia/4aia_pocket.pdb
REMARK  117 active torsions:
REMARK  status: ('A' for Active; 'I' for Inactive)
REMARK    1  A    between atoms: _1  and  _3
REMARK    2  A    between atoms: _3  and  _4
REMARK    3  A    between atoms: _3  and  _6
REMARK    4  A    between atoms: _8  and  _10
REMARK    5  A    between atoms: _10  and  _11
REMARK    6  A    between atoms: _14  and  _16
REMARK    7  A    between atoms: _16  and  _17
REMARK    8  A    between atoms: _16  and  _19
REMARK    9  A    between atoms: _19  and  _20
REMARK   10  A    between atoms: _26  and  _28
REMARK   11  A    between atoms: _28  and  _29
REMARK   12  A    between atoms: _28  and  _31
REMARK   13  A    between atoms: _31  and  _32
REMARK   14  A    between atoms: _37  and  _38
REMARK   15  A    between atoms: _40  and  _42
REMARK   16  A    between atoms: _42  and  _43
REMARK   17  A    between atoms: _42  and  _45
REMARK   18  A    between atoms: _45  and  _46
REMARK   19  A    between atoms: _51  and  _52
REMARK   20  A    between atoms: _54  and  _56
REMARK   21  A    between atoms: _56  and  _57
REMARK   22  A    between atoms: _56  and  _59
REMARK   23  A    between atoms: _59  and  _60
REMARK   24  A    between atoms: _65  and  _67
REMARK   25  A    between atoms: _67  and  _68
REMARK   26  A    between atoms: _67  and  _70
REMARK   27  A    between atoms: _73  and  _75
REMARK   28  A    between atoms: _75  and  _76
REMARK   29  A    between atoms: _75  and  _78
REMARK   30  A    between atoms: _78  and  _79
REMARK   31  A    between atoms: _89  and  _91
REMARK   32  A    between atoms: _91  and  _92
REMARK   33  A    between atoms: _94  and  _96
REMARK   34  A    between atoms: _96  and  _97
REMARK   35  A    between atoms: _96  and  _99
REMARK   36  A    between atoms: _99  and  _100
REMARK   37  A    between atoms: _103  and  _105
REMARK   38  A    between atoms: _105  and  _106
REMARK   39  A    between atoms: _105  and  _108
REMARK   40  A    between atoms: _108  and  _109
REMARK   41  A    between atoms: _112  and  _114
REMARK   42  A    between atoms: _114  and  _115
REMARK   43  A    between atoms: _114  and  _117
REMARK   44  A    between atoms: _117  and  _118
REMARK   45  A    between atoms: _118  and  _119
REMARK   46  A    between atoms: _122  and  _124
REMARK   47  A    between atoms: _124  and  _125
REMARK   48  A    between atoms: _124  and  _127
REMARK   49  A    between atoms: _127  and  _128
REMARK   50  A    between atoms: _130  and  _132
REMARK   51  A    between atoms: _132  and  _133
REMARK   52  A    between atoms: _132  and  _135
REMARK   53  A    between atoms: _135  and  _136
REMARK   54  A    between atoms: _141  and  _143
REMARK   55  A    between atoms: _143  and  _144
REMARK   56  A    between atoms: _147  and  _149
REMARK   57  A    between atoms: _149  and  _150
REMARK   58  A    between atoms: _149  and  _152
REMARK   59  A    between atoms: _152  and  _153
REMARK   60  A    between atoms: _156  and  _158
REMARK   61  A    between atoms: _158  and  _159
REMARK   62  A    between atoms: _158  and  _161
REMARK   63  A    between atoms: _161  and  _162
REMARK   64  A    between atoms: _164  and  _166
REMARK   65  A    between atoms: _166  and  _167
REMARK   66  A    between atoms: _166  and  _169
REMARK   67  A    between atoms: _169  and  _170
REMARK   68  A    between atoms: _180  and  _182
REMARK   69  A    between atoms: _182  and  _183
REMARK   70  A    between atoms: _182  and  _185
REMARK   71  A    between atoms: _185  and  _186
REMARK   72  A    between atoms: _189  and  _191
REMARK   73  A    between atoms: _191  and  _192
REMARK   74  A    between atoms: _191  and  _194
REMARK   75  A    between atoms: _194  and  _195
REMARK   76  A    between atoms: _198  and  _200
REMARK   77  A    between atoms: _200  and  _201
REMARK   78  A    between atoms: _200  and  _203
REMARK   79  A    between atoms: _203  and  _204
REMARK   80  A    between atoms: _207  and  _209
REMARK   81  A    between atoms: _209  and  _210
REMARK   82  A    between atoms: _209  and  _212
REMARK   83  A    between atoms: _212  and  _213
REMARK   84  A    between atoms: _213  and  _214
REMARK   85  A    between atoms: _214  and  _215
REMARK   86  A    between atoms: _224  and  _226
REMARK   87  A    between atoms: _226  and  _227
REMARK   88  A    between atoms: _226  and  _229
REMARK   89  A    between atoms: _232  and  _234
REMARK   90  A    between atoms: _234  and  _235
REMARK   91  A    between atoms: _234  and  _237
REMARK   92  A    between atoms: _237  and  _238
REMARK   93  A    between atoms: _241  and  _243
REMARK   94  A    between atoms: _243  and  _244
REMARK   95  A    between atoms: _243  and  _246
REMARK   96  A    between atoms: _246  and  _247
REMARK   97  A    between atoms: _253  and  _255
REMARK   98  A    between atoms: _255  and  _256
REMARK   99  A    between atoms: _255  and  _258
REMARK  100  A    between atoms: _258  and  _259
REMARK  101  A    between atoms: _261  and  _263
REMARK  102  A    between atoms: _263  and  _264
REMARK  103  A    between atoms: _263  and  _266
REMARK  104  A    between atoms: _266  and  _267
REMARK  105  A    between atoms: _273  and  _275
REMARK  106  A    between atoms: _275  and  _276
REMARK  107  A    between atoms: _275  and  _278
REMARK  108  A    between atoms: _278  and  _279
REMARK  109  A    between atoms: _282  and  _284
REMARK  110  A    between atoms: _284  and  _285
REMARK  111  A    between atoms: _284  and  _287
REMARK  112  A    between atoms: _287  and  _288
REMARK  113  A    between atoms: _288  and  _289
REMARK  114  A    between atoms: _292  and  _294
REMARK  115  A    between atoms: _294  and  _295
REMARK  116  A    between atoms: _298  and  _300
REMARK  117  A    between atoms: _300  and  _301
REMARK                            x       y       z     vdW  Elec       q    Type
REMARK                         _______ _______ _______ _____ _____    ______ ____
ROOT
ATOM      1  O   HOH     1      32.022 -13.489   3.981  0.00  0.00    +0.000 OA
ENDROOT
TORSDOF 0
REMARK  Name = ../refined-set-2016/4aia/4aia_pocket.pdb
REMARK  117 active torsions:
REMARK  status: ('A' for Active; 'I' for Inactive)
REMARK    1  A    between atoms: _1  and  _3
REMARK    2  A    between atoms: _3  and  _4
REMARK    3  A    between atoms: _3  and  _6
REMARK    4  A    between atoms: _8  and  _10
REMARK    5  A    between atoms: _10  and  _11
REMARK    6  A    between atoms: _14  and  _16
REMARK    7  A    between atoms: _16  and  _17
REMARK    8  A    between atoms: _16  and  _19
REMARK    9  A    between atoms: _19  and  _20
REMARK   10  A    between atoms: _26  and  _28
REMARK   11  A    between atoms: _28  and  _29
REMARK   12  A    between atoms: _28  and  _31
REMARK   13  A    between atoms: _31  and  _32
REMARK   14  A    between atoms: _37  and  _38
REMARK   15  A    between atoms: _40  and  _42
REMARK   16  A    between atoms: _42  and  _43
REMARK   17  A    between atoms: _42  and  _45
REMARK   18  A    between atoms: _45  and  _46
REMARK   19  A    between atoms: _51  and  _52
REMARK   20  A    between atoms: _54  and  _56
REMARK   21  A    between atoms: _56  and  _57
REMARK   22  A    between atoms: _56  and  _59
REMARK   23  A    between atoms: _59  and  _60
REMARK   24  A    between atoms: _65  and  _67
REMARK   25  A    between atoms: _67  and  _68
REMARK   26  A    between atoms: _67  and  _70
REMARK   27  A    between atoms: _73  and  _75
REMARK   28  A    between atoms: _75  and  _76
REMARK   29  A    between atoms: _75  and  _78
REMARK   30  A    between atoms: _78  and  _79
REMARK   31  A    between atoms: _89  and  _91
REMARK   32  A    between atoms: _91  and  _92
REMARK   33  A    between atoms: _94  and  _96
REMARK   34  A    between atoms: _96  and  _97
REMARK   35  A    between atoms: _96  and  _99
REMARK   36  A    between atoms: _99  and  _100
REMARK   37  A    between atoms: _103  and  _105
REMARK   38  A    between atoms: _105  and  _106
REMARK   39  A    between atoms: _105  and  _108
REMARK   40  A    between atoms: _108  and  _109
REMARK   41  A    between atoms: _112  and  _114
REMARK   42  A    between atoms: _114  and  _115
REMARK   43  A    between atoms: _114  and  _117
REMARK   44  A    between atoms: _117  and  _118
REMARK   45  A    between atoms: _118  and  _119
REMARK   46  A    between atoms: _122  and  _124
REMARK   47  A    between atoms: _124  and  _125
REMARK   48  A    between atoms: _124  and  _127
REMARK   49  A    between atoms: _127  and  _128
REMARK   50  A    between atoms: _130  and  _132
REMARK   51  A    between atoms: _132  and  _133
REMARK   52  A    between atoms: _132  and  _135
REMARK   53  A    between atoms: _135  and  _136
REMARK   54  A    between atoms: _141  and  _143
REMARK   55  A    between atoms: _143  and  _144
REMARK   56  A    between atoms: _147  and  _149
REMARK   57  A    between atoms: _149  and  _150
REMARK   58  A    between atoms: _149  and  _152
REMARK   59  A    between atoms: _152  and  _153
REMARK   60  A    between atoms: _156  and  _158
REMARK   61  A    between atoms: _158  and  _159
REMARK   62  A    between atoms: _158  and  _161
REMARK   63  A    between atoms: _161  and  _162
REMARK   64  A    between atoms: _164  and  _166
REMARK   65  A    between atoms: _166  and  _167
REMARK   66  A    between atoms: _166  and  _169
REMARK   67  A    between atoms: _169  and  _170
REMARK   68  A    between atoms: _180  and  _182
REMARK   69  A    between atoms: _182  and  _183
REMARK   70  A    between atoms: _182  and  _185
REMARK   71  A    between atoms: _185  and  _186
REMARK   72  A    between atoms: _189  and  _191
REMARK   73  A    between atoms: _191  and  _192
REMARK   74  A    between atoms: _191  and  _194
REMARK   75  A    between atoms: _194  and  _195
REMARK   76  A    between atoms: _198  and  _200
REMARK   77  A    between atoms: _200  and  _201
REMARK   78  A    between atoms: _200  and  _203
REMARK   79  A    between atoms: _203  and  _204
REMARK   80  A    between atoms: _207  and  _209
REMARK   81  A    between atoms: _209  and  _210
REMARK   82  A    between atoms: _209  and  _212
REMARK   83  A    between atoms: _212  and  _213
REMARK   84  A    between atoms: _213  and  _214
REMARK   85  A    between atoms: _214  and  _215
REMARK   86  A    between atoms: _224  and  _226
REMARK   87  A    between atoms: _226  and  _227
REMARK   88  A    between atoms: _226  and  _229
REMARK   89  A    between atoms: _232  and  _234
REMARK   90  A    between atoms: _234  and  _235
REMARK   91  A    between atoms: _234  and  _237
REMARK   92  A    between atoms: _237  and  _238
REMARK   93  A    between atoms: _241  and  _243
REMARK   94  A    between atoms: _243  and  _244
REMARK   95  A    between atoms: _243  and  _246
REMARK   96  A    between atoms: _246  and  _247
REMARK   97  A    between atoms: _253  and  _255
REMARK   98  A    between atoms: _255  and  _256
REMARK   99  A    between atoms: _255  and  _258
REMARK  100  A    between atoms: _258  and  _259
REMARK  101  A    between atoms: _261  and  _263
REMARK  102  A    between atoms: _263  and  _264
REMARK  103  A    between atoms: _263  and  _266
REMARK  104  A    between atoms: _266  and  _267
REMARK  105  A    between atoms: _273  and  _275
REMARK  106  A    between atoms: _275  and  _276
REMARK  107  A    between atoms: _275  and  _278
REMARK  108  A    between atoms: _278  and  _279
REMARK  109  A    between atoms: _282  and  _284
REMARK  110  A    between atoms: _284  and  _285
REMARK  111  A    between atoms: _284  and  _287
REMARK  112  A    between atoms: _287  and  _288
REMARK  113  A    between atoms: _288  and  _289
REMARK  114  A    between atoms: _292  and  _294
REMARK  115  A    between atoms: _294  and  _295
REMARK  116  A    between atoms: _298  and  _300
REMARK  117  A    between atoms: _300  and  _301
REMARK                            x       y       z     vdW  Elec       q    Type
REMARK                         _______ _______ _______ _____ _____    ______ ____
ROOT
ATOM      1  O   HOH     1      33.452 -19.742   2.945  0.00  0.00    +0.000 OA
ENDROOT
TORSDOF 0
REMARK  Name = ../refined-set-2016/4aia/4aia_pocket.pdb
REMARK  117 active torsions:
REMARK  status: ('A' for Active; 'I' for Inactive)
REMARK    1  A    between atoms: _1  and  _3
REMARK    2  A    between atoms: _3  and  _4
REMARK    3  A    between atoms: _3  and  _6
REMARK    4  A    between atoms: _8  and  _10
REMARK    5  A    between atoms: _10  and  _11
REMARK    6  A    between atoms: _14  and  _16
REMARK    7  A    between atoms: _16  and  _17
REMARK    8  A    between atoms: _16  and  _19
REMARK    9  A    between atoms: _19  and  _20
REMARK   10  A    between atoms: _26  and  _28
REMARK   11  A    between atoms: _28  and  _29
REMARK   12  A    between atoms: _28  and  _31
REMARK   13  A    between atoms: _31  and  _32
REMARK   14  A    between atoms: _37  and  _38
REMARK   15  A    between atoms: _40  and  _42
REMARK   16  A    between atoms: _42  and  _43
REMARK   17  A    between atoms: _42  and  _45
REMARK   18  A    between atoms: _45  and  _46
REMARK   19  A    between atoms: _51  and  _52
REMARK   20  A    between atoms: _54  and  _56
REMARK   21  A    between atoms: _56  and  _57
REMARK   22  A    between atoms: _56  and  _59
REMARK   23  A    between atoms: _59  and  _60
REMARK   24  A    between atoms: _65  and  _67
REMARK   25  A    between atoms: _67  and  _68
REMARK   26  A    between atoms: _67  and  _70
REMARK   27  A    between atoms: _73  and  _75
REMARK   28  A    between atoms: _75  and  _76
REMARK   29  A    between atoms: _75  and  _78
REMARK   30  A    between atoms: _78  and  _79
REMARK   31  A    between atoms: _89  and  _91
REMARK   32  A    between atoms: _91  and  _92
REMARK   33  A    between atoms: _94  and  _96
REMARK   34  A    between atoms: _96  and  _97
REMARK   35  A    between atoms: _96  and  _99
REMARK   36  A    between atoms: _99  and  _100
REMARK   37  A    between atoms: _103  and  _105
REMARK   38  A    between atoms: _105  and  _106
REMARK   39  A    between atoms: _105  and  _108
REMARK   40  A    between atoms: _108  and  _109
REMARK   41  A    between atoms: _112  and  _114
REMARK   42  A    between atoms: _114  and  _115
REMARK   43  A    between atoms: _114  and  _117
REMARK   44  A    between atoms: _117  and  _118
REMARK   45  A    between atoms: _118  and  _119
REMARK   46  A    between atoms: _122  and  _124
REMARK   47  A    between atoms: _124  and  _125
REMARK   48  A    between atoms: _124  and  _127
REMARK   49  A    between atoms: _127  and  _128
REMARK   50  A    between atoms: _130  and  _132
REMARK   51  A    between atoms: _132  and  _133
REMARK   52  A    between atoms: _132  and  _135
REMARK   53  A    between atoms: _135  and  _136
REMARK   54  A    between atoms: _141  and  _143
REMARK   55  A    between atoms: _143  and  _144
REMARK   56  A    between atoms: _147  and  _149
REMARK   57  A    between atoms: _149  and  _150
REMARK   58  A    between atoms: _149  and  _152
REMARK   59  A    between atoms: _152  and  _153
REMARK   60  A    between atoms: _156  and  _158
REMARK   61  A    between atoms: _158  and  _159
REMARK   62  A    between atoms: _158  and  _161
REMARK   63  A    between atoms: _161  and  _162
REMARK   64  A    between atoms: _164  and  _166
REMARK   65  A    between atoms: _166  and  _167
REMARK   66  A    between atoms: _166  and  _169
REMARK   67  A    between atoms: _169  and  _170
REMARK   68  A    between atoms: _180  and  _182
REMARK   69  A    between atoms: _182  and  _183
REMARK   70  A    between atoms: _182  and  _185
REMARK   71  A    between atoms: _185  and  _186
REMARK   72  A    between atoms: _189  and  _191
REMARK   73  A    between atoms: _191  and  _192
REMARK   74  A    between atoms: _191  and  _194
REMARK   75  A    between atoms: _194  and  _195
REMARK   76  A    between atoms: _198  and  _200
REMARK   77  A    between atoms: _200  and  _201
REMARK   78  A    between atoms: _200  and  _203
REMARK   79  A    between atoms: _203  and  _204
REMARK   80  A    between atoms: _207  and  _209
REMARK   81  A    between atoms: _209  and  _210
REMARK   82  A    between atoms: _209  and  _212
REMARK   83  A    between atoms: _212  and  _213
REMARK   84  A    between atoms: _213  and  _214
REMARK   85  A    between atoms: _214  and  _215
REMARK   86  A    between atoms: _224  and  _226
REMARK   87  A    between atoms: _226  and  _227
REMARK   88  A    between atoms: _226  and  _229
REMARK   89  A    between atoms: _232  and  _234
REMARK   90  A    between atoms: _234  and  _235
REMARK   91  A    between atoms: _234  and  _237
REMARK   92  A    between atoms: _237  and  _238
REMARK   93  A    between atoms: _241  and  _243
REMARK   94  A    between atoms: _243  and  _244
REMARK   95  A    between atoms: _243  and  _246
REMARK   96  A    between atoms: _246  and  _247
REMARK   97  A    between atoms: _253  and  _255
REMARK   98  A    between atoms: _255  and  _256
REMARK   99  A    between atoms: _255  and  _258
REMARK  100  A    between atoms: _258  and  _259
REMARK  101  A    between atoms: _261  and  _263
REMARK  102  A    between atoms: _263  and  _264
REMARK  103  A    between atoms: _263  and  _266
REMARK  104  A    between atoms: _266  and  _267
REMARK  105  A    between atoms: _273  and  _275
REMARK  106  A    between atoms: _275  and  _276
REMARK  107  A    between atoms: _275  and  _278
REMARK  108  A    between atoms: _278  and  _279
REMARK  109  A    between atoms: _282  and  _284
REMARK  110  A    between atoms: _284  and  _285
REMARK  111  A    between atoms: _284  and  _287
REMARK  112  A    between atoms: _287  and  _288
REMARK  113  A    between atoms: _288  and  _289
REMARK  114  A    between atoms: _292  and  _294
REMARK  115  A    between atoms: _294  and  _295
REMARK  116  A    between atoms: _298  and  _300
REMARK  117  A    between atoms: _300  and  _301
REMARK                            x       y       z     vdW  Elec       q    Type
REMARK                         _______ _______ _______ _____ _____    ______ ____
ROOT
ATOM      1  O   HOH     1      35.393 -16.129   7.253  0.00  0.00    +0.000 OA
ENDROOT
TORSDOF 0
REMARK  Name = ../refined-set-2016/4aia/4aia_pocket.pdb
REMARK  117 active torsions:
REMARK  status: ('A' for Active; 'I' for Inactive)
REMARK    1  A    between atoms: _1  and  _3
REMARK    2  A    between atoms: _3  and  _4
REMARK    3  A    between atoms: _3  and  _6
REMARK    4  A    between atoms: _8  and  _10
REMARK    5  A    between atoms: _10  and  _11
REMARK    6  A    between atoms: _14  and  _16
REMARK    7  A    between atoms: _16  and  _17
REMARK    8  A    between atoms: _16  and  _19
REMARK    9  A    between atoms: _19  and  _20
REMARK   10  A    between atoms: _26  and  _28
REMARK   11  A    between atoms: _28  and  _29
REMARK   12  A    between atoms: _28  and  _31
REMARK   13  A    between atoms: _31  and  _32
REMARK   14  A    between atoms: _37  and  _38
REMARK   15  A    between atoms: _40  and  _42
REMARK   16  A    between atoms: _42  and  _43
REMARK   17  A    between atoms: _42  and  _45
REMARK   18  A    between atoms: _45  and  _46
REMARK   19  A    between atoms: _51  and  _52
REMARK   20  A    between atoms: _54  and  _56
REMARK   21  A    between atoms: _56  and  _57
REMARK   22  A    between atoms: _56  and  _59
REMARK   23  A    between atoms: _59  and  _60
REMARK   24  A    between atoms: _65  and  _67
REMARK   25  A    between atoms: _67  and  _68
REMARK   26  A    between atoms: _67  and  _70
REMARK   27  A    between atoms: _73  and  _75
REMARK   28  A    between atoms: _75  and  _76
REMARK   29  A    between atoms: _75  and  _78
REMARK   30  A    between atoms: _78  and  _79
REMARK   31  A    between atoms: _89  and  _91
REMARK   32  A    between atoms: _91  and  _92
REMARK   33  A    between atoms: _94  and  _96
REMARK   34  A    between atoms: _96  and  _97
REMARK   35  A    between atoms: _96  and  _99
REMARK   36  A    between atoms: _99  and  _100
REMARK   37  A    between atoms: _103  and  _105
REMARK   38  A    between atoms: _105  and  _106
REMARK   39  A    between atoms: _105  and  _108
REMARK   40  A    between atoms: _108  and  _109
REMARK   41  A    between atoms: _112  and  _114
REMARK   42  A    between atoms: _114  and  _115
REMARK   43  A    between atoms: _114  and  _117
REMARK   44  A    between atoms: _117  and  _118
REMARK   45  A    between atoms: _118  and  _119
REMARK   46  A    between atoms: _122  and  _124
REMARK   47  A    between atoms: _124  and  _125
REMARK   48  A    between atoms: _124  and  _127
REMARK   49  A    between atoms: _127  and  _128
REMARK   50  A    between atoms: _130  and  _132
REMARK   51  A    between atoms: _132  and  _133
REMARK   52  A    between atoms: _132  and  _135
REMARK   53  A    between atoms: _135  and  _136
REMARK   54  A    between atoms: _141  and  _143
REMARK   55  A    between atoms: _143  and  _144
REMARK   56  A    between atoms: _147  and  _149
REMARK   57  A    between atoms: _149  and  _150
REMARK   58  A    between atoms: _149  and  _152
REMARK   59  A    between atoms: _152  and  _153
REMARK   60  A    between atoms: _156  and  _158
REMARK   61  A    between atoms: _158  and  _159
REMARK   62  A    between atoms: _158  and  _161
REMARK   63  A    between atoms: _161  and  _162
REMARK   64  A    between atoms: _164  and  _166
REMARK   65  A    between atoms: _166  and  _167
REMARK   66  A    between atoms: _166  and  _169
REMARK   67  A    between atoms: _169  and  _170
REMARK   68  A    between atoms: _180  and  _182
REMARK   69  A    between atoms: _182  and  _183
REMARK   70  A    between atoms: _182  and  _185
REMARK   71  A    between atoms: _185  and  _186
REMARK   72  A    between atoms: _189  and  _191
REMARK   73  A    between atoms: _191  and  _192
REMARK   74  A    between atoms: _191  and  _194
REMARK   75  A    between atoms: _194  and  _195
REMARK   76  A    between atoms: _198  and  _200
REMARK   77  A    between atoms: _200  and  _201
REMARK   78  A    between atoms: _200  and  _203
REMARK   79  A    between atoms: _203  and  _204
REMARK   80  A    between atoms: _207  and  _209
REMARK   81  A    between atoms: _209  and  _210
REMARK   82  A    between atoms: _209  and  _212
REMARK   83  A    between atoms: _212  and  _213
REMARK   84  A    between atoms: _213  and  _214
REMARK   85  A    between atoms: _214  and  _215
REMARK   86  A    between atoms: _224  and  _226
REMARK   87  A    between atoms: _226  and  _227
REMARK   88  A    between atoms: _226  and  _229
REMARK   89  A    between atoms: _232  and  _234
REMARK   90  A    between atoms: _234  and  _235
REMARK   91  A    between atoms: _234  and  _237
REMARK   92  A    between atoms: _237  and  _238
REMARK   93  A    between atoms: _241  and  _243
REMARK   94  A    between atoms: _243  and  _244
REMARK   95  A    between atoms: _243  and  _246
REMARK   96  A    between atoms: _246  and  _247
REMARK   97  A    between atoms: _253  and  _255
REMARK   98  A    between atoms: _255  and  _256
REMARK   99  A    between atoms: _255  and  _258
REMARK  100  A    between atoms: _258  and  _259
REMARK  101  A    between atoms: _261  and  _263
REMARK  102  A    between atoms: _263  and  _264
REMARK  103  A    between atoms: _263  and  _266
REMARK  104  A    between atoms: _266  and  _267
REMARK  105  A    between atoms: _273  and  _275
REMARK  106  A    between atoms: _275  and  _276
REMARK  107  A    between atoms: _275  and  _278
REMARK  108  A    between atoms: _278  and  _279
REMARK  109  A    between atoms: _282  and  _284
REMARK  110  A    between atoms: _284  and  _285
REMARK  111  A    between atoms: _284  and  _287
REMARK  112  A    between atoms: _287  and  _288
REMARK  113  A    between atoms: _288  and  _289
REMARK  114  A    between atoms: _292  and  _294
REMARK  115  A    between atoms: _294  and  _295
REMARK  116  A    between atoms: _298  and  _300
REMARK  117  A    between atoms: _300  and  _301
REMARK                            x       y       z     vdW  Elec       q    Type
REMARK                         _______ _______ _______ _____ _____    ______ ____
ROOT
ATOM      1  O   HOH     1      36.957 -25.896  -2.287  0.00  0.00    +0.000 OA
ENDROOT
TORSDOF 0
REMARK  Name = ../refined-set-2016/4aia/4aia_pocket.pdb
REMARK  117 active torsions:
REMARK  status: ('A' for Active; 'I' for Inactive)
REMARK    1  A    between atoms: _1  and  _3
REMARK    2  A    between atoms: _3  and  _4
REMARK    3  A    between atoms: _3  and  _6
REMARK    4  A    between atoms: _8  and  _10
REMARK    5  A    between atoms: _10  and  _11
REMARK    6  A    between atoms: _14  and  _16
REMARK    7  A    between atoms: _16  and  _17
REMARK    8  A    between atoms: _16  and  _19
REMARK    9  A    between atoms: _19  and  _20
REMARK   10  A    between atoms: _26  and  _28
REMARK   11  A    between atoms: _28  and  _29
REMARK   12  A    between atoms: _28  and  _31
REMARK   13  A    between atoms: _31  and  _32
REMARK   14  A    between atoms: _37  and  _38
REMARK   15  A    between atoms: _40  and  _42
REMARK   16  A    between atoms: _42  and  _43
REMARK   17  A    between atoms: _42  and  _45
REMARK   18  A    between atoms: _45  and  _46
REMARK   19  A    between atoms: _51  and  _52
REMARK   20  A    between atoms: _54  and  _56
REMARK   21  A    between atoms: _56  and  _57
REMARK   22  A    between atoms: _56  and  _59
REMARK   23  A    between atoms: _59  and  _60
REMARK   24  A    between atoms: _65  and  _67
REMARK   25  A    between atoms: _67  and  _68
REMARK   26  A    between atoms: _67  and  _70
REMARK   27  A    between atoms: _73  and  _75
REMARK   28  A    between atoms: _75  and  _76
REMARK   29  A    between atoms: _75  and  _78
REMARK   30  A    between atoms: _78  and  _79
REMARK   31  A    between atoms: _89  and  _91
REMARK   32  A    between atoms: _91  and  _92
REMARK   33  A    between atoms: _94  and  _96
REMARK   34  A    between atoms: _96  and  _97
REMARK   35  A    between atoms: _96  and  _99
REMARK   36  A    between atoms: _99  and  _100
REMARK   37  A    between atoms: _103  and  _105
REMARK   38  A    between atoms: _105  and  _106
REMARK   39  A    between atoms: _105  and  _108
REMARK   40  A    between atoms: _108  and  _109
REMARK   41  A    between atoms: _112  and  _114
REMARK   42  A    between atoms: _114  and  _115
REMARK   43  A    between atoms: _114  and  _117
REMARK   44  A    between atoms: _117  and  _118
REMARK   45  A    between atoms: _118  and  _119
REMARK   46  A    between atoms: _122  and  _124
REMARK   47  A    between atoms: _124  and  _125
REMARK   48  A    between atoms: _124  and  _127
REMARK   49  A    between atoms: _127  and  _128
REMARK   50  A    between atoms: _130  and  _132
REMARK   51  A    between atoms: _132  and  _133
REMARK   52  A    between atoms: _132  and  _135
REMARK   53  A    between atoms: _135  and  _136
REMARK   54  A    between atoms: _141  and  _143
REMARK   55  A    between atoms: _143  and  _144
REMARK   56  A    between atoms: _147  and  _149
REMARK   57  A    between atoms: _149  and  _150
REMARK   58  A    between atoms: _149  and  _152
REMARK   59  A    between atoms: _152  and  _153
REMARK   60  A    between atoms: _156  and  _158
REMARK   61  A    between atoms: _158  and  _159
REMARK   62  A    between atoms: _158  and  _161
REMARK   63  A    between atoms: _161  and  _162
REMARK   64  A    between atoms: _164  and  _166
REMARK   65  A    between atoms: _166  and  _167
REMARK   66  A    between atoms: _166  and  _169
REMARK   67  A    between atoms: _169  and  _170
REMARK   68  A    between atoms: _180  and  _182
REMARK   69  A    between atoms: _182  and  _183
REMARK   70  A    between atoms: _182  and  _185
REMARK   71  A    between atoms: _185  and  _186
REMARK   72  A    between atoms: _189  and  _191
REMARK   73  A    between atoms: _191  and  _192
REMARK   74  A    between atoms: _191  and  _194
REMARK   75  A    between atoms: _194  and  _195
REMARK   76  A    between atoms: _198  and  _200
REMARK   77  A    between atoms: _200  and  _201
REMARK   78  A    between atoms: _200  and  _203
REMARK   79  A    between atoms: _203  and  _204
REMARK   80  A    between atoms: _207  and  _209
REMARK   81  A    between atoms: _209  and  _210
REMARK   82  A    between atoms: _209  and  _212
REMARK   83  A    between atoms: _212  and  _213
REMARK   84  A    between atoms: _213  and  _214
REMARK   85  A    between atoms: _214  and  _215
REMARK   86  A    between atoms: _224  and  _226
REMARK   87  A    between atoms: _226  and  _227
REMARK   88  A    between atoms: _226  and  _229
REMARK   89  A    between atoms: _232  and  _234
REMARK   90  A    between atoms: _234  and  _235
REMARK   91  A    between atoms: _234  and  _237
REMARK   92  A    between atoms: _237  and  _238
REMARK   93  A    between atoms: _241  and  _243
REMARK   94  A    between atoms: _243  and  _244
REMARK   95  A    between atoms: _243  and  _246
REMARK   96  A    between atoms: _246  and  _247
REMARK   97  A    between atoms: _253  and  _255
REMARK   98  A    between atoms: _255  and  _256
REMARK   99  A    between atoms: _255  and  _258
REMARK  100  A    between atoms: _258  and  _259
REMARK  101  A    between atoms: _261  and  _263
REMARK  102  A    between atoms: _263  and  _264
REMARK  103  A    between atoms: _263  and  _266
REMARK  104  A    between atoms: _266  and  _267
REMARK  105  A    between atoms: _273  and  _275
REMARK  106  A    between atoms: _275  and  _276
REMARK  107  A    between atoms: _275  and  _278
REMARK  108  A    between atoms: _278  and  _279
REMARK  109  A    between atoms: _282  and  _284
REMARK  110  A    between atoms: _284  and  _285
REMARK  111  A    between atoms: _284  and  _287
REMARK  112  A    between atoms: _287  and  _288
REMARK  113  A    between atoms: _288  and  _289
REMARK  114  A    between atoms: _292  and  _294
REMARK  115  A    between atoms: _294  and  _295
REMARK  116  A    between atoms: _298  and  _300
REMARK  117  A    between atoms: _300  and  _301
REMARK                            x       y       z     vdW  Elec       q    Type
REMARK                         _______ _______ _______ _____ _____    ______ ____
ROOT
ATOM      1  O   HOH     1      31.854 -24.178   7.386  0.00  0.00    +0.000 OA
ENDROOT
TORSDOF 0
REMARK  Name = ../refined-set-2016/4aia/4aia_pocket.pdb
REMARK  117 active torsions:
REMARK  status: ('A' for Active; 'I' for Inactive)
REMARK    1  A    between atoms: _1  and  _3
REMARK    2  A    between atoms: _3  and  _4
REMARK    3  A    between atoms: _3  and  _6
REMARK    4  A    between atoms: _8  and  _10
REMARK    5  A    between atoms: _10  and  _11
REMARK    6  A    between atoms: _14  and  _16
REMARK    7  A    between atoms: _16  and  _17
REMARK    8  A    between atoms: _16  and  _19
REMARK    9  A    between atoms: _19  and  _20
REMARK   10  A    between atoms: _26  and  _28
REMARK   11  A    between atoms: _28  and  _29
REMARK   12  A    between atoms: _28  and  _31
REMARK   13  A    between atoms: _31  and  _32
REMARK   14  A    between atoms: _37  and  _38
REMARK   15  A    between atoms: _40  and  _42
REMARK   16  A    between atoms: _42  and  _43
REMARK   17  A    between atoms: _42  and  _45
REMARK   18  A    between atoms: _45  and  _46
REMARK   19  A    between atoms: _51  and  _52
REMARK   20  A    between atoms: _54  and  _56
REMARK   21  A    between atoms: _56  and  _57
REMARK   22  A    between atoms: _56  and  _59
REMARK   23  A    between atoms: _59  and  _60
REMARK   24  A    between atoms: _65  and  _67
REMARK   25  A    between atoms: _67  and  _68
REMARK   26  A    between atoms: _67  and  _70
REMARK   27  A    between atoms: _73  and  _75
REMARK   28  A    between atoms: _75  and  _76
REMARK   29  A    between atoms: _75  and  _78
REMARK   30  A    between atoms: _78  and  _79
REMARK   31  A    between atoms: _89  and  _91
REMARK   32  A    between atoms: _91  and  _92
REMARK   33  A    between atoms: _94  and  _96
REMARK   34  A    between atoms: _96  and  _97
REMARK   35  A    between atoms: _96  and  _99
REMARK   36  A    between atoms: _99  and  _100
REMARK   37  A    between atoms: _103  and  _105
REMARK   38  A    between atoms: _105  and  _106
REMARK   39  A    between atoms: _105  and  _108
REMARK   40  A    between atoms: _108  and  _109
REMARK   41  A    between atoms: _112  and  _114
REMARK   42  A    between atoms: _114  and  _115
REMARK   43  A    between atoms: _114  and  _117
REMARK   44  A    between atoms: _117  and  _118
REMARK   45  A    between atoms: _118  and  _119
REMARK   46  A    between atoms: _122  and  _124
REMARK   47  A    between atoms: _124  and  _125
REMARK   48  A    between atoms: _124  and  _127
REMARK   49  A    between atoms: _127  and  _128
REMARK   50  A    between atoms: _130  and  _132
REMARK   51  A    between atoms: _132  and  _133
REMARK   52  A    between atoms: _132  and  _135
REMARK   53  A    between atoms: _135  and  _136
REMARK   54  A    between atoms: _141  and  _143
REMARK   55  A    between atoms: _143  and  _144
REMARK   56  A    between atoms: _147  and  _149
REMARK   57  A    between atoms: _149  and  _150
REMARK   58  A    between atoms: _149  and  _152
REMARK   59  A    between atoms: _152  and  _153
REMARK   60  A    between atoms: _156  and  _158
REMARK   61  A    between atoms: _158  and  _159
REMARK   62  A    between atoms: _158  and  _161
REMARK   63  A    between atoms: _161  and  _162
REMARK   64  A    between atoms: _164  and  _166
REMARK   65  A    between atoms: _166  and  _167
REMARK   66  A    between atoms: _166  and  _169
REMARK   67  A    between atoms: _169  and  _170
REMARK   68  A    between atoms: _180  and  _182
REMARK   69  A    between atoms: _182  and  _183
REMARK   70  A    between atoms: _182  and  _185
REMARK   71  A    between atoms: _185  and  _186
REMARK   72  A    between atoms: _189  and  _191
REMARK   73  A    between atoms: _191  and  _192
REMARK   74  A    between atoms: _191  and  _194
REMARK   75  A    between atoms: _194  and  _195
REMARK   76  A    between atoms: _198  and  _200
REMARK   77  A    between atoms: _200  and  _201
REMARK   78  A    between atoms: _200  and  _203
REMARK   79  A    between atoms: _203  and  _204
REMARK   80  A    between atoms: _207  and  _209
REMARK   81  A    between atoms: _209  and  _210
REMARK   82  A    between atoms: _209  and  _212
REMARK   83  A    between atoms: _212  and  _213
REMARK   84  A    between atoms: _213  and  _214
REMARK   85  A    between atoms: _214  and  _215
REMARK   86  A    between atoms: _224  and  _226
REMARK   87  A    between atoms: _226  and  _227
REMARK   88  A    between atoms: _226  and  _229
REMARK   89  A    between atoms: _232  and  _234
REMARK   90  A    between atoms: _234  and  _235
REMARK   91  A    between atoms: _234  and  _237
REMARK   92  A    between atoms: _237  and  _238
REMARK   93  A    between atoms: _241  and  _243
REMARK   94  A    between atoms: _243  and  _244
REMARK   95  A    between atoms: _243  and  _246
REMARK   96  A    between atoms: _246  and  _247
REMARK   97  A    between atoms: _253  and  _255
REMARK   98  A    between atoms: _255  and  _256
REMARK   99  A    between atoms: _255  and  _258
REMARK  100  A    between atoms: _258  and  _259
REMARK  101  A    between atoms: _261  and  _263
REMARK  102  A    between atoms: _263  and  _264
REMARK  103  A    between atoms: _263  and  _266
REMARK  104  A    between atoms: _266  and  _267
REMARK  105  A    between atoms: _273  and  _275
REMARK  106  A    between atoms: _275  and  _276
REMARK  107  A    between atoms: _275  and  _278
REMARK  108  A    between atoms: _278  and  _279
REMARK  109  A    between atoms: _282  and  _284
REMARK  110  A    between atoms: _284  and  _285
REMARK  111  A    between atoms: _284  and  _287
REMARK  112  A    between atoms: _287  and  _288
REMARK  113  A    between atoms: _288  and  _289
REMARK  114  A    between atoms: _292  and  _294
REMARK  115  A    between atoms: _294  and  _295
REMARK  116  A    between atoms: _298  and  _300
REMARK  117  A    between atoms: _300  and  _301
REMARK                            x       y       z     vdW  Elec       q    Type
REMARK                         _______ _______ _______ _____ _____    ______ ____
ROOT
ATOM      1  O   HOH     1      36.502 -15.932  -0.002  0.00  0.00    +0.000 OA
ENDROOT
TORSDOF 0
REMARK  Name = ../refined-set-2016/4aia/4aia_pocket.pdb
REMARK  117 active torsions:
REMARK  status: ('A' for Active; 'I' for Inactive)
REMARK    1  A    between atoms: _1  and  _3
REMARK    2  A    between atoms: _3  and  _4
REMARK    3  A    between atoms: _3  and  _6
REMARK    4  A    between atoms: _8  and  _10
REMARK    5  A    between atoms: _10  and  _11
REMARK    6  A    between atoms: _14  and  _16
REMARK    7  A    between atoms: _16  and  _17
REMARK    8  A    between atoms: _16  and  _19
REMARK    9  A    between atoms: _19  and  _20
REMARK   10  A    between atoms: _26  and  _28
REMARK   11  A    between atoms: _28  and  _29
REMARK   12  A    between atoms: _28  and  _31
REMARK   13  A    between atoms: _31  and  _32
REMARK   14  A    between atoms: _37  and  _38
REMARK   15  A    between atoms: _40  and  _42
REMARK   16  A    between atoms: _42  and  _43
REMARK   17  A    between atoms: _42  and  _45
REMARK   18  A    between atoms: _45  and  _46
REMARK   19  A    between atoms: _51  and  _52
REMARK   20  A    between atoms: _54  and  _56
REMARK   21  A    between atoms: _56  and  _57
REMARK   22  A    between atoms: _56  and  _59
REMARK   23  A    between atoms: _59  and  _60
REMARK   24  A    between atoms: _65  and  _67
REMARK   25  A    between atoms: _67  and  _68
REMARK   26  A    between atoms: _67  and  _70
REMARK   27  A    between atoms: _73  and  _75
REMARK   28  A    between atoms: _75  and  _76
REMARK   29  A    between atoms: _75  and  _78
REMARK   30  A    between atoms: _78  and  _79
REMARK   31  A    between atoms: _89  and  _91
REMARK   32  A    between atoms: _91  and  _92
REMARK   33  A    between atoms: _94  and  _96
REMARK   34  A    between atoms: _96  and  _97
REMARK   35  A    between atoms: _96  and  _99
REMARK   36  A    between atoms: _99  and  _100
REMARK   37  A    between atoms: _103  and  _105
REMARK   38  A    between atoms: _105  and  _106
REMARK   39  A    between atoms: _105  and  _108
REMARK   40  A    between atoms: _108  and  _109
REMARK   41  A    between atoms: _112  and  _114
REMARK   42  A    between atoms: _114  and  _115
REMARK   43  A    between atoms: _114  and  _117
REMARK   44  A    between atoms: _117  and  _118
REMARK   45  A    between atoms: _118  and  _119
REMARK   46  A    between atoms: _122  and  _124
REMARK   47  A    between atoms: _124  and  _125
REMARK   48  A    between atoms: _124  and  _127
REMARK   49  A    between atoms: _127  and  _128
REMARK   50  A    between atoms: _130  and  _132
REMARK   51  A    between atoms: _132  and  _133
REMARK   52  A    between atoms: _132  and  _135
REMARK   53  A    between atoms: _135  and  _136
REMARK   54  A    between atoms: _141  and  _143
REMARK   55  A    between atoms: _143  and  _144
REMARK   56  A    between atoms: _147  and  _149
REMARK   57  A    between atoms: _149  and  _150
REMARK   58  A    between atoms: _149  and  _152
REMARK   59  A    between atoms: _152  and  _153
REMARK   60  A    between atoms: _156  and  _158
REMARK   61  A    between atoms: _158  and  _159
REMARK   62  A    between atoms: _158  and  _161
REMARK   63  A    between atoms: _161  and  _162
REMARK   64  A    between atoms: _164  and  _166
REMARK   65  A    between atoms: _166  and  _167
REMARK   66  A    between atoms: _166  and  _169
REMARK   67  A    between atoms: _169  and  _170
REMARK   68  A    between atoms: _180  and  _182
REMARK   69  A    between atoms: _182  and  _183
REMARK   70  A    between atoms: _182  and  _185
REMARK   71  A    between atoms: _185  and  _186
REMARK   72  A    between atoms: _189  and  _191
REMARK   73  A    between atoms: _191  and  _192
REMARK   74  A    between atoms: _191  and  _194
REMARK   75  A    between atoms: _194  and  _195
REMARK   76  A    between atoms: _198  and  _200
REMARK   77  A    between atoms: _200  and  _201
REMARK   78  A    between atoms: _200  and  _203
REMARK   79  A    between atoms: _203  and  _204
REMARK   80  A    between atoms: _207  and  _209
REMARK   81  A    between atoms: _209  and  _210
REMARK   82  A    between atoms: _209  and  _212
REMARK   83  A    between atoms: _212  and  _213
REMARK   84  A    between atoms: _213  and  _214
REMARK   85  A    between atoms: _214  and  _215
REMARK   86  A    between atoms: _224  and  _226
REMARK   87  A    between atoms: _226  and  _227
REMARK   88  A    between atoms: _226  and  _229
REMARK   89  A    between atoms: _232  and  _234
REMARK   90  A    between atoms: _234  and  _235
REMARK   91  A    between atoms: _234  and  _237
REMARK   92  A    between atoms: _237  and  _238
REMARK   93  A    between atoms: _241  and  _243
REMARK   94  A    between atoms: _243  and  _244
REMARK   95  A    between atoms: _243  and  _246
REMARK   96  A    between atoms: _246  and  _247
REMARK   97  A    between atoms: _253  and  _255
REMARK   98  A    between atoms: _255  and  _256
REMARK   99  A    between atoms: _255  and  _258
REMARK  100  A    between atoms: _258  and  _259
REMARK  101  A    between atoms: _261  and  _263
REMARK  102  A    between atoms: _263  and  _264
REMARK  103  A    between atoms: _263  and  _266
REMARK  104  A    between atoms: _266  and  _267
REMARK  105  A    between atoms: _273  and  _275
REMARK  106  A    between atoms: _275  and  _276
REMARK  107  A    between atoms: _275  and  _278
REMARK  108  A    between atoms: _278  and  _279
REMARK  109  A    between atoms: _282  and  _284
REMARK  110  A    between atoms: _284  and  _285
REMARK  111  A    between atoms: _284  and  _287
REMARK  112  A    between atoms: _287  and  _288
REMARK  113  A    between atoms: _288  and  _289
REMARK  114  A    between atoms: _292  and  _294
REMARK  115  A    between atoms: _294  and  _295
REMARK  116  A    between atoms: _298  and  _300
REMARK  117  A    between atoms: _300  and  _301
REMARK                            x       y       z     vdW  Elec       q    Type
REMARK                         _______ _______ _______ _____ _____    ______ ____
ROOT
ATOM      1  O   HOH     1      19.433 -21.645   5.387  0.00  0.00    +0.000 OA
ENDROOT
TORSDOF 0
REMARK  Name = ../refined-set-2016/4aia/4aia_pocket.pdb
REMARK  117 active torsions:
REMARK  status: ('A' for Active; 'I' for Inactive)
REMARK    1  A    between atoms: _1  and  _3
REMARK    2  A    between atoms: _3  and  _4
REMARK    3  A    between atoms: _3  and  _6
REMARK    4  A    between atoms: _8  and  _10
REMARK    5  A    between atoms: _10  and  _11
REMARK    6  A    between atoms: _14  and  _16
REMARK    7  A    between atoms: _16  and  _17
REMARK    8  A    between atoms: _16  and  _19
REMARK    9  A    between atoms: _19  and  _20
REMARK   10  A    between atoms: _26  and  _28
REMARK   11  A    between atoms: _28  and  _29
REMARK   12  A    between atoms: _28  and  _31
REMARK   13  A    between atoms: _31  and  _32
REMARK   14  A    between atoms: _37  and  _38
REMARK   15  A    between atoms: _40  and  _42
REMARK   16  A    between atoms: _42  and  _43
REMARK   17  A    between atoms: _42  and  _45
REMARK   18  A    between atoms: _45  and  _46
REMARK   19  A    between atoms: _51  and  _52
REMARK   20  A    between atoms: _54  and  _56
REMARK   21  A    between atoms: _56  and  _57
REMARK   22  A    between atoms: _56  and  _59
REMARK   23  A    between atoms: _59  and  _60
REMARK   24  A    between atoms: _65  and  _67
REMARK   25  A    between atoms: _67  and  _68
REMARK   26  A    between atoms: _67  and  _70
REMARK   27  A    between atoms: _73  and  _75
REMARK   28  A    between atoms: _75  and  _76
REMARK   29  A    between atoms: _75  and  _78
REMARK   30  A    between atoms: _78  and  _79
REMARK   31  A    between atoms: _89  and  _91
REMARK   32  A    between atoms: _91  and  _92
REMARK   33  A    between atoms: _94  and  _96
REMARK   34  A    between atoms: _96  and  _97
REMARK   35  A    between atoms: _96  and  _99
REMARK   36  A    between atoms: _99  and  _100
REMARK   37  A    between atoms: _103  and  _105
REMARK   38  A    between atoms: _105  and  _106
REMARK   39  A    between atoms: _105  and  _108
REMARK   40  A    between atoms: _108  and  _109
REMARK   41  A    between atoms: _112  and  _114
REMARK   42  A    between atoms: _114  and  _115
REMARK   43  A    between atoms: _114  and  _117
REMARK   44  A    between atoms: _117  and  _118
REMARK   45  A    between atoms: _118  and  _119
REMARK   46  A    between atoms: _122  and  _124
REMARK   47  A    between atoms: _124  and  _125
REMARK   48  A    between atoms: _124  and  _127
REMARK   49  A    between atoms: _127  and  _128
REMARK   50  A    between atoms: _130  and  _132
REMARK   51  A    between atoms: _132  and  _133
REMARK   52  A    between atoms: _132  and  _135
REMARK   53  A    between atoms: _135  and  _136
REMARK   54  A    between atoms: _141  and  _143
REMARK   55  A    between atoms: _143  and  _144
REMARK   56  A    between atoms: _147  and  _149
REMARK   57  A    between atoms: _149  and  _150
REMARK   58  A    between atoms: _149  and  _152
REMARK   59  A    between atoms: _152  and  _153
REMARK   60  A    between atoms: _156  and  _158
REMARK   61  A    between atoms: _158  and  _159
REMARK   62  A    between atoms: _158  and  _161
REMARK   63  A    between atoms: _161  and  _162
REMARK   64  A    between atoms: _164  and  _166
REMARK   65  A    between atoms: _166  and  _167
REMARK   66  A    between atoms: _166  and  _169
REMARK   67  A    between atoms: _169  and  _170
REMARK   68  A    between atoms: _180  and  _182
REMARK   69  A    between atoms: _182  and  _183
REMARK   70  A    between atoms: _182  and  _185
REMARK   71  A    between atoms: _185  and  _186
REMARK   72  A    between atoms: _189  and  _191
REMARK   73  A    between atoms: _191  and  _192
REMARK   74  A    between atoms: _191  and  _194
REMARK   75  A    between atoms: _194  and  _195
REMARK   76  A    between atoms: _198  and  _200
REMARK   77  A    between atoms: _200  and  _201
REMARK   78  A    between atoms: _200  and  _203
REMARK   79  A    between atoms: _203  and  _204
REMARK   80  A    between atoms: _207  and  _209
REMARK   81  A    between atoms: _209  and  _210
REMARK   82  A    between atoms: _209  and  _212
REMARK   83  A    between atoms: _212  and  _213
REMARK   84  A    between atoms: _213  and  _214
REMARK   85  A    between atoms: _214  and  _215
REMARK   86  A    between atoms: _224  and  _226
REMARK   87  A    between atoms: _226  and  _227
REMARK   88  A    between atoms: _226  and  _229
REMARK   89  A    between atoms: _232  and  _234
REMARK   90  A    between atoms: _234  and  _235
REMARK   91  A    between atoms: _234  and  _237
REMARK   92  A    between atoms: _237  and  _238
REMARK   93  A    between atoms: _241  and  _243
REMARK   94  A    between atoms: _243  and  _244
REMARK   95  A    between atoms: _243  and  _246
REMARK   96  A    between atoms: _246  and  _247
REMARK   97  A    between atoms: _253  and  _255
REMARK   98  A    between atoms: _255  and  _256
REMARK   99  A    between atoms: _255  and  _258
REMARK  100  A    between atoms: _258  and  _259
REMARK  101  A    between atoms: _261  and  _263
REMARK  102  A    between atoms: _263  and  _264
REMARK  103  A    between atoms: _263  and  _266
REMARK  104  A    between atoms: _266  and  _267
REMARK  105  A    between atoms: _273  and  _275
REMARK  106  A    between atoms: _275  and  _276
REMARK  107  A    between atoms: _275  and  _278
REMARK  108  A    between atoms: _278  and  _279
REMARK  109  A    between atoms: _282  and  _284
REMARK  110  A    between atoms: _284  and  _285
REMARK  111  A    between atoms: _284  and  _287
REMARK  112  A    between atoms: _287  and  _288
REMARK  113  A    between atoms: _288  and  _289
REMARK  114  A    between atoms: _292  and  _294
REMARK  115  A    between atoms: _294  and  _295
REMARK  116  A    between atoms: _298  and  _300
REMARK  117  A    between atoms: _300  and  _301
REMARK                            x       y       z     vdW  Elec       q    Type
REMARK                         _______ _______ _______ _____ _____    ______ ____
ROOT
ATOM      1  O   HOH     1      34.944 -25.272  -3.895  0.00  0.00    +0.000 OA
ENDROOT
TORSDOF 0
REMARK  Name = ../refined-set-2016/4aia/4aia_pocket.pdb
REMARK  117 active torsions:
REMARK  status: ('A' for Active; 'I' for Inactive)
REMARK    1  A    between atoms: _1  and  _3
REMARK    2  A    between atoms: _3  and  _4
REMARK    3  A    between atoms: _3  and  _6
REMARK    4  A    between atoms: _8  and  _10
REMARK    5  A    between atoms: _10  and  _11
REMARK    6  A    between atoms: _14  and  _16
REMARK    7  A    between atoms: _16  and  _17
REMARK    8  A    between atoms: _16  and  _19
REMARK    9  A    between atoms: _19  and  _20
REMARK   10  A    between atoms: _26  and  _28
REMARK   11  A    between atoms: _28  and  _29
REMARK   12  A    between atoms: _28  and  _31
REMARK   13  A    between atoms: _31  and  _32
REMARK   14  A    between atoms: _37  and  _38
REMARK   15  A    between atoms: _40  and  _42
REMARK   16  A    between atoms: _42  and  _43
REMARK   17  A    between atoms: _42  and  _45
REMARK   18  A    between atoms: _45  and  _46
REMARK   19  A    between atoms: _51  and  _52
REMARK   20  A    between atoms: _54  and  _56
REMARK   21  A    between atoms: _56  and  _57
REMARK   22  A    between atoms: _56  and  _59
REMARK   23  A    between atoms: _59  and  _60
REMARK   24  A    between atoms: _65  and  _67
REMARK   25  A    between atoms: _67  and  _68
REMARK   26  A    between atoms: _67  and  _70
REMARK   27  A    between atoms: _73  and  _75
REMARK   28  A    between atoms: _75  and  _76
REMARK   29  A    between atoms: _75  and  _78
REMARK   30  A    between atoms: _78  and  _79
REMARK   31  A    between atoms: _89  and  _91
REMARK   32  A    between atoms: _91  and  _92
REMARK   33  A    between atoms: _94  and  _96
REMARK   34  A    between atoms: _96  and  _97
REMARK   35  A    between atoms: _96  and  _99
REMARK   36  A    between atoms: _99  and  _100
REMARK   37  A    between atoms: _103  and  _105
REMARK   38  A    between atoms: _105  and  _106
REMARK   39  A    between atoms: _105  and  _108
REMARK   40  A    between atoms: _108  and  _109
REMARK   41  A    between atoms: _112  and  _114
REMARK   42  A    between atoms: _114  and  _115
REMARK   43  A    between atoms: _114  and  _117
REMARK   44  A    between atoms: _117  and  _118
REMARK   45  A    between atoms: _118  and  _119
REMARK   46  A    between atoms: _122  and  _124
REMARK   47  A    between atoms: _124  and  _125
REMARK   48  A    between atoms: _124  and  _127
REMARK   49  A    between atoms: _127  and  _128
REMARK   50  A    between atoms: _130  and  _132
REMARK   51  A    between atoms: _132  and  _133
REMARK   52  A    between atoms: _132  and  _135
REMARK   53  A    between atoms: _135  and  _136
REMARK   54  A    between atoms: _141  and  _143
REMARK   55  A    between atoms: _143  and  _144
REMARK   56  A    between atoms: _147  and  _149
REMARK   57  A    between atoms: _149  and  _150
REMARK   58  A    between atoms: _149  and  _152
REMARK   59  A    between atoms: _152  and  _153
REMARK   60  A    between atoms: _156  and  _158
REMARK   61  A    between atoms: _158  and  _159
REMARK   62  A    between atoms: _158  and  _161
REMARK   63  A    between atoms: _161  and  _162
REMARK   64  A    between atoms: _164  and  _166
REMARK   65  A    between atoms: _166  and  _167
REMARK   66  A    between atoms: _166  and  _169
REMARK   67  A    between atoms: _169  and  _170
REMARK   68  A    between atoms: _180  and  _182
REMARK   69  A    between atoms: _182  and  _183
REMARK   70  A    between atoms: _182  and  _185
REMARK   71  A    between atoms: _185  and  _186
REMARK   72  A    between atoms: _189  and  _191
REMARK   73  A    between atoms: _191  and  _192
REMARK   74  A    between atoms: _191  and  _194
REMARK   75  A    between atoms: _194  and  _195
REMARK   76  A    between atoms: _198  and  _200
REMARK   77  A    between atoms: _200  and  _201
REMARK   78  A    between atoms: _200  and  _203
REMARK   79  A    between atoms: _203  and  _204
REMARK   80  A    between atoms: _207  and  _209
REMARK   81  A    between atoms: _209  and  _210
REMARK   82  A    between atoms: _209  and  _212
REMARK   83  A    between atoms: _212  and  _213
REMARK   84  A    between atoms: _213  and  _214
REMARK   85  A    between atoms: _214  and  _215
REMARK   86  A    between atoms: _224  and  _226
REMARK   87  A    between atoms: _226  and  _227
REMARK   88  A    between atoms: _226  and  _229
REMARK   89  A    between atoms: _232  and  _234
REMARK   90  A    between atoms: _234  and  _235
REMARK   91  A    between atoms: _234  and  _237
REMARK   92  A    between atoms: _237  and  _238
REMARK   93  A    between atoms: _241  and  _243
REMARK   94  A    between atoms: _243  and  _244
REMARK   95  A    between atoms: _243  and  _246
REMARK   96  A    between atoms: _246  and  _247
REMARK   97  A    between atoms: _253  and  _255
REMARK   98  A    between atoms: _255  and  _256
REMARK   99  A    between atoms: _255  and  _258
REMARK  100  A    between atoms: _258  and  _259
REMARK  101  A    between atoms: _261  and  _263
REMARK  102  A    between atoms: _263  and  _264
REMARK  103  A    between atoms: _263  and  _266
REMARK  104  A    between atoms: _266  and  _267
REMARK  105  A    between atoms: _273  and  _275
REMARK  106  A    between atoms: _275  and  _276
REMARK  107  A    between atoms: _275  and  _278
REMARK  108  A    between atoms: _278  and  _279
REMARK  109  A    between atoms: _282  and  _284
REMARK  110  A    between atoms: _284  and  _285
REMARK  111  A    between atoms: _284  and  _287
REMARK  112  A    between atoms: _287  and  _288
REMARK  113  A    between atoms: _288  and  _289
REMARK  114  A    between atoms: _292  and  _294
REMARK  115  A    between atoms: _294  and  _295
REMARK  116  A    between atoms: _298  and  _300
REMARK  117  A    between atoms: _300  and  _301
REMARK                            x       y       z     vdW  Elec       q    Type
REMARK                         _______ _______ _______ _____ _____    ______ ____
ROOT
ATOM      1  O   HOH     1      33.562 -21.006  -4.061  0.00  0.00    +0.000 OA
ENDROOT
TORSDOF 0
REMARK  Name = ../refined-set-2016/4aia/4aia_pocket.pdb
REMARK  117 active torsions:
REMARK  status: ('A' for Active; 'I' for Inactive)
REMARK    1  A    between atoms: _1  and  _3
REMARK    2  A    between atoms: _3  and  _4
REMARK    3  A    between atoms: _3  and  _6
REMARK    4  A    between atoms: _8  and  _10
REMARK    5  A    between atoms: _10  and  _11
REMARK    6  A    between atoms: _14  and  _16
REMARK    7  A    between atoms: _16  and  _17
REMARK    8  A    between atoms: _16  and  _19
REMARK    9  A    between atoms: _19  and  _20
REMARK   10  A    between atoms: _26  and  _28
REMARK   11  A    between atoms: _28  and  _29
REMARK   12  A    between atoms: _28  and  _31
REMARK   13  A    between atoms: _31  and  _32
REMARK   14  A    between atoms: _37  and  _38
REMARK   15  A    between atoms: _40  and  _42
REMARK   16  A    between atoms: _42  and  _43
REMARK   17  A    between atoms: _42  and  _45
REMARK   18  A    between atoms: _45  and  _46
REMARK   19  A    between atoms: _51  and  _52
REMARK   20  A    between atoms: _54  and  _56
REMARK   21  A    between atoms: _56  and  _57
REMARK   22  A    between atoms: _56  and  _59
REMARK   23  A    between atoms: _59  and  _60
REMARK   24  A    between atoms: _65  and  _67
REMARK   25  A    between atoms: _67  and  _68
REMARK   26  A    between atoms: _67  and  _70
REMARK   27  A    between atoms: _73  and  _75
REMARK   28  A    between atoms: _75  and  _76
REMARK   29  A    between atoms: _75  and  _78
REMARK   30  A    between atoms: _78  and  _79
REMARK   31  A    between atoms: _89  and  _91
REMARK   32  A    between atoms: _91  and  _92
REMARK   33  A    between atoms: _94  and  _96
REMARK   34  A    between atoms: _96  and  _97
REMARK   35  A    between atoms: _96  and  _99
REMARK   36  A    between atoms: _99  and  _100
REMARK   37  A    between atoms: _103  and  _105
REMARK   38  A    between atoms: _105  and  _106
REMARK   39  A    between atoms: _105  and  _108
REMARK   40  A    between atoms: _108  and  _109
REMARK   41  A    between atoms: _112  and  _114
REMARK   42  A    between atoms: _114  and  _115
REMARK   43  A    between atoms: _114  and  _117
REMARK   44  A    between atoms: _117  and  _118
REMARK   45  A    between atoms: _118  and  _119
REMARK   46  A    between atoms: _122  and  _124
REMARK   47  A    between atoms: _124  and  _125
REMARK   48  A    between atoms: _124  and  _127
REMARK   49  A    between atoms: _127  and  _128
REMARK   50  A    between atoms: _130  and  _132
REMARK   51  A    between atoms: _132  and  _133
REMARK   52  A    between atoms: _132  and  _135
REMARK   53  A    between atoms: _135  and  _136
REMARK   54  A    between atoms: _141  and  _143
REMARK   55  A    between atoms: _143  and  _144
REMARK   56  A    between atoms: _147  and  _149
REMARK   57  A    between atoms: _149  and  _150
REMARK   58  A    between atoms: _149  and  _152
REMARK   59  A    between atoms: _152  and  _153
REMARK   60  A    between atoms: _156  and  _158
REMARK   61  A    between atoms: _158  and  _159
REMARK   62  A    between atoms: _158  and  _161
REMARK   63  A    between atoms: _161  and  _162
REMARK   64  A    between atoms: _164  and  _166
REMARK   65  A    between atoms: _166  and  _167
REMARK   66  A    between atoms: _166  and  _169
REMARK   67  A    between atoms: _169  and  _170
REMARK   68  A    between atoms: _180  and  _182
REMARK   69  A    between atoms: _182  and  _183
REMARK   70  A    between atoms: _182  and  _185
REMARK   71  A    between atoms: _185  and  _186
REMARK   72  A    between atoms: _189  and  _191
REMARK   73  A    between atoms: _191  and  _192
REMARK   74  A    between atoms: _191  and  _194
REMARK   75  A    between atoms: _194  and  _195
REMARK   76  A    between atoms: _198  and  _200
REMARK   77  A    between atoms: _200  and  _201
REMARK   78  A    between atoms: _200  and  _203
REMARK   79  A    between atoms: _203  and  _204
REMARK   80  A    between atoms: _207  and  _209
REMARK   81  A    between atoms: _209  and  _210
REMARK   82  A    between atoms: _209  and  _212
REMARK   83  A    between atoms: _212  and  _213
REMARK   84  A    between atoms: _213  and  _214
REMARK   85  A    between atoms: _214  and  _215
REMARK   86  A    between atoms: _224  and  _226
REMARK   87  A    between atoms: _226  and  _227
REMARK   88  A    between atoms: _226  and  _229
REMARK   89  A    between atoms: _232  and  _234
REMARK   90  A    between atoms: _234  and  _235
REMARK   91  A    between atoms: _234  and  _237
REMARK   92  A    between atoms: _237  and  _238
REMARK   93  A    between atoms: _241  and  _243
REMARK   94  A    between atoms: _243  and  _244
REMARK   95  A    between atoms: _243  and  _246
REMARK   96  A    between atoms: _246  and  _247
REMARK   97  A    between atoms: _253  and  _255
REMARK   98  A    between atoms: _255  and  _256
REMARK   99  A    between atoms: _255  and  _258
REMARK  100  A    between atoms: _258  and  _259
REMARK  101  A    between atoms: _261  and  _263
REMARK  102  A    between atoms: _263  and  _264
REMARK  103  A    between atoms: _263  and  _266
REMARK  104  A    between atoms: _266  and  _267
REMARK  105  A    between atoms: _273  and  _275
REMARK  106  A    between atoms: _275  and  _276
REMARK  107  A    between atoms: _275  and  _278
REMARK  108  A    between atoms: _278  and  _279
REMARK  109  A    between atoms: _282  and  _284
REMARK  110  A    between atoms: _284  and  _285
REMARK  111  A    between atoms: _284  and  _287
REMARK  112  A    between atoms: _287  and  _288
REMARK  113  A    between atoms: _288  and  _289
REMARK  114  A    between atoms: _292  and  _294
REMARK  115  A    between atoms: _294  and  _295
REMARK  116  A    between atoms: _298  and  _300
REMARK  117  A    between atoms: _300  and  _301
REMARK                            x       y       z     vdW  Elec       q    Type
REMARK                         _______ _______ _______ _____ _____    ______ ____
ROOT
ATOM      1  O   HOH     1      32.274 -16.647  -2.578  0.00  0.00    +0.000 OA
ENDROOT
TORSDOF 0
REMARK  Name = ../refined-set-2016/4aia/4aia_pocket.pdb
REMARK  117 active torsions:
REMARK  status: ('A' for Active; 'I' for Inactive)
REMARK    1  A    between atoms: _1  and  _3
REMARK    2  A    between atoms: _3  and  _4
REMARK    3  A    between atoms: _3  and  _6
REMARK    4  A    between atoms: _8  and  _10
REMARK    5  A    between atoms: _10  and  _11
REMARK    6  A    between atoms: _14  and  _16
REMARK    7  A    between atoms: _16  and  _17
REMARK    8  A    between atoms: _16  and  _19
REMARK    9  A    between atoms: _19  and  _20
REMARK   10  A    between atoms: _26  and  _28
REMARK   11  A    between atoms: _28  and  _29
REMARK   12  A    between atoms: _28  and  _31
REMARK   13  A    between atoms: _31  and  _32
REMARK   14  A    between atoms: _37  and  _38
REMARK   15  A    between atoms: _40  and  _42
REMARK   16  A    between atoms: _42  and  _43
REMARK   17  A    between atoms: _42  and  _45
REMARK   18  A    between atoms: _45  and  _46
REMARK   19  A    between atoms: _51  and  _52
REMARK   20  A    between atoms: _54  and  _56
REMARK   21  A    between atoms: _56  and  _57
REMARK   22  A    between atoms: _56  and  _59
REMARK   23  A    between atoms: _59  and  _60
REMARK   24  A    between atoms: _65  and  _67
REMARK   25  A    between atoms: _67  and  _68
REMARK   26  A    between atoms: _67  and  _70
REMARK   27  A    between atoms: _73  and  _75
REMARK   28  A    between atoms: _75  and  _76
REMARK   29  A    between atoms: _75  and  _78
REMARK   30  A    between atoms: _78  and  _79
REMARK   31  A    between atoms: _89  and  _91
REMARK   32  A    between atoms: _91  and  _92
REMARK   33  A    between atoms: _94  and  _96
REMARK   34  A    between atoms: _96  and  _97
REMARK   35  A    between atoms: _96  and  _99
REMARK   36  A    between atoms: _99  and  _100
REMARK   37  A    between atoms: _103  and  _105
REMARK   38  A    between atoms: _105  and  _106
REMARK   39  A    between atoms: _105  and  _108
REMARK   40  A    between atoms: _108  and  _109
REMARK   41  A    between atoms: _112  and  _114
REMARK   42  A    between atoms: _114  and  _115
REMARK   43  A    between atoms: _114  and  _117
REMARK   44  A    between atoms: _117  and  _118
REMARK   45  A    between atoms: _118  and  _119
REMARK   46  A    between atoms: _122  and  _124
REMARK   47  A    between atoms: _124  and  _125
REMARK   48  A    between atoms: _124  and  _127
REMARK   49  A    between atoms: _127  and  _128
REMARK   50  A    between atoms: _130  and  _132
REMARK   51  A    between atoms: _132  and  _133
REMARK   52  A    between atoms: _132  and  _135
REMARK   53  A    between atoms: _135  and  _136
REMARK   54  A    between atoms: _141  and  _143
REMARK   55  A    between atoms: _143  and  _144
REMARK   56  A    between atoms: _147  and  _149
REMARK   57  A    between atoms: _149  and  _150
REMARK   58  A    between atoms: _149  and  _152
REMARK   59  A    between atoms: _152  and  _153
REMARK   60  A    between atoms: _156  and  _158
REMARK   61  A    between atoms: _158  and  _159
REMARK   62  A    between atoms: _158  and  _161
REMARK   63  A    between atoms: _161  and  _162
REMARK   64  A    between atoms: _164  and  _166
REMARK   65  A    between atoms: _166  and  _167
REMARK   66  A    between atoms: _166  and  _169
REMARK   67  A    between atoms: _169  and  _170
REMARK   68  A    between atoms: _180  and  _182
REMARK   69  A    between atoms: _182  and  _183
REMARK   70  A    between atoms: _182  and  _185
REMARK   71  A    between atoms: _185  and  _186
REMARK   72  A    between atoms: _189  and  _191
REMARK   73  A    between atoms: _191  and  _192
REMARK   74  A    between atoms: _191  and  _194
REMARK   75  A    between atoms: _194  and  _195
REMARK   76  A    between atoms: _198  and  _200
REMARK   77  A    between atoms: _200  and  _201
REMARK   78  A    between atoms: _200  and  _203
REMARK   79  A    between atoms: _203  and  _204
REMARK   80  A    between atoms: _207  and  _209
REMARK   81  A    between atoms: _209  and  _210
REMARK   82  A    between atoms: _209  and  _212
REMARK   83  A    between atoms: _212  and  _213
REMARK   84  A    between atoms: _213  and  _214
REMARK   85  A    between atoms: _214  and  _215
REMARK   86  A    between atoms: _224  and  _226
REMARK   87  A    between atoms: _226  and  _227
REMARK   88  A    between atoms: _226  and  _229
REMARK   89  A    between atoms: _232  and  _234
REMARK   90  A    between atoms: _234  and  _235
REMARK   91  A    between atoms: _234  and  _237
REMARK   92  A    between atoms: _237  and  _238
REMARK   93  A    between atoms: _241  and  _243
REMARK   94  A    between atoms: _243  and  _244
REMARK   95  A    between atoms: _243  and  _246
REMARK   96  A    between atoms: _246  and  _247
REMARK   97  A    between atoms: _253  and  _255
REMARK   98  A    between atoms: _255  and  _256
REMARK   99  A    between atoms: _255  and  _258
REMARK  100  A    between atoms: _258  and  _259
REMARK  101  A    between atoms: _261  and  _263
REMARK  102  A    between atoms: _263  and  _264
REMARK  103  A    between atoms: _263  and  _266
REMARK  104  A    between atoms: _266  and  _267
REMARK  105  A    between atoms: _273  and  _275
REMARK  106  A    between atoms: _275  and  _276
REMARK  107  A    between atoms: _275  and  _278
REMARK  108  A    between atoms: _278  and  _279
REMARK  109  A    between atoms: _282  and  _284
REMARK  110  A    between atoms: _284  and  _285
REMARK  111  A    between atoms: _284  and  _287
REMARK  112  A    between atoms: _287  and  _288
REMARK  113  A    between atoms: _288  and  _289
REMARK  114  A    between atoms: _292  and  _294
REMARK  115  A    between atoms: _294  and  _295
REMARK  116  A    between atoms: _298  and  _300
REMARK  117  A    between atoms: _300  and  _301
REMARK                            x       y       z     vdW  Elec       q    Type
REMARK                         _______ _______ _______ _____ _____    ______ ____
ROOT
ATOM      1  O   HOH     1      30.398 -19.802  -0.523  0.00  0.00    +0.000 OA
ENDROOT
TORSDOF 0
REMARK  Name = ../refined-set-2016/4aia/4aia_pocket.pdb
REMARK  117 active torsions:
REMARK  status: ('A' for Active; 'I' for Inactive)
REMARK    1  A    between atoms: _1  and  _3
REMARK    2  A    between atoms: _3  and  _4
REMARK    3  A    between atoms: _3  and  _6
REMARK    4  A    between atoms: _8  and  _10
REMARK    5  A    between atoms: _10  and  _11
REMARK    6  A    between atoms: _14  and  _16
REMARK    7  A    between atoms: _16  and  _17
REMARK    8  A    between atoms: _16  and  _19
REMARK    9  A    between atoms: _19  and  _20
REMARK   10  A    between atoms: _26  and  _28
REMARK   11  A    between atoms: _28  and  _29
REMARK   12  A    between atoms: _28  and  _31
REMARK   13  A    between atoms: _31  and  _32
REMARK   14  A    between atoms: _37  and  _38
REMARK   15  A    between atoms: _40  and  _42
REMARK   16  A    between atoms: _42  and  _43
REMARK   17  A    between atoms: _42  and  _45
REMARK   18  A    between atoms: _45  and  _46
REMARK   19  A    between atoms: _51  and  _52
REMARK   20  A    between atoms: _54  and  _56
REMARK   21  A    between atoms: _56  and  _57
REMARK   22  A    between atoms: _56  and  _59
REMARK   23  A    between atoms: _59  and  _60
REMARK   24  A    between atoms: _65  and  _67
REMARK   25  A    between atoms: _67  and  _68
REMARK   26  A    between atoms: _67  and  _70
REMARK   27  A    between atoms: _73  and  _75
REMARK   28  A    between atoms: _75  and  _76
REMARK   29  A    between atoms: _75  and  _78
REMARK   30  A    between atoms: _78  and  _79
REMARK   31  A    between atoms: _89  and  _91
REMARK   32  A    between atoms: _91  and  _92
REMARK   33  A    between atoms: _94  and  _96
REMARK   34  A    between atoms: _96  and  _97
REMARK   35  A    between atoms: _96  and  _99
REMARK   36  A    between atoms: _99  and  _100
REMARK   37  A    between atoms: _103  and  _105
REMARK   38  A    between atoms: _105  and  _106
REMARK   39  A    between atoms: _105  and  _108
REMARK   40  A    between atoms: _108  and  _109
REMARK   41  A    between atoms: _112  and  _114
REMARK   42  A    between atoms: _114  and  _115
REMARK   43  A    between atoms: _114  and  _117
REMARK   44  A    between atoms: _117  and  _118
REMARK   45  A    between atoms: _118  and  _119
REMARK   46  A    between atoms: _122  and  _124
REMARK   47  A    between atoms: _124  and  _125
REMARK   48  A    between atoms: _124  and  _127
REMARK   49  A    between atoms: _127  and  _128
REMARK   50  A    between atoms: _130  and  _132
REMARK   51  A    between atoms: _132  and  _133
REMARK   52  A    between atoms: _132  and  _135
REMARK   53  A    between atoms: _135  and  _136
REMARK   54  A    between atoms: _141  and  _143
REMARK   55  A    between atoms: _143  and  _144
REMARK   56  A    between atoms: _147  and  _149
REMARK   57  A    between atoms: _149  and  _150
REMARK   58  A    between atoms: _149  and  _152
REMARK   59  A    between atoms: _152  and  _153
REMARK   60  A    between atoms: _156  and  _158
REMARK   61  A    between atoms: _158  and  _159
REMARK   62  A    between atoms: _158  and  _161
REMARK   63  A    between atoms: _161  and  _162
REMARK   64  A    between atoms: _164  and  _166
REMARK   65  A    between atoms: _166  and  _167
REMARK   66  A    between atoms: _166  and  _169
REMARK   67  A    between atoms: _169  and  _170
REMARK   68  A    between atoms: _180  and  _182
REMARK   69  A    between atoms: _182  and  _183
REMARK   70  A    between atoms: _182  and  _185
REMARK   71  A    between atoms: _185  and  _186
REMARK   72  A    between atoms: _189  and  _191
REMARK   73  A    between atoms: _191  and  _192
REMARK   74  A    between atoms: _191  and  _194
REMARK   75  A    between atoms: _194  and  _195
REMARK   76  A    between atoms: _198  and  _200
REMARK   77  A    between atoms: _200  and  _201
REMARK   78  A    between atoms: _200  and  _203
REMARK   79  A    between atoms: _203  and  _204
REMARK   80  A    between atoms: _207  and  _209
REMARK   81  A    between atoms: _209  and  _210
REMARK   82  A    between atoms: _209  and  _212
REMARK   83  A    between atoms: _212  and  _213
REMARK   84  A    between atoms: _213  and  _214
REMARK   85  A    between atoms: _214  and  _215
REMARK   86  A    between atoms: _224  and  _226
REMARK   87  A    between atoms: _226  and  _227
REMARK   88  A    between atoms: _226  and  _229
REMARK   89  A    between atoms: _232  and  _234
REMARK   90  A    between atoms: _234  and  _235
REMARK   91  A    between atoms: _234  and  _237
REMARK   92  A    between atoms: _237  and  _238
REMARK   93  A    between atoms: _241  and  _243
REMARK   94  A    between atoms: _243  and  _244
REMARK   95  A    between atoms: _243  and  _246
REMARK   96  A    between atoms: _246  and  _247
REMARK   97  A    between atoms: _253  and  _255
REMARK   98  A    between atoms: _255  and  _256
REMARK   99  A    between atoms: _255  and  _258
REMARK  100  A    between atoms: _258  and  _259
REMARK  101  A    between atoms: _261  and  _263
REMARK  102  A    between atoms: _263  and  _264
REMARK  103  A    between atoms: _263  and  _266
REMARK  104  A    between atoms: _266  and  _267
REMARK  105  A    between atoms: _273  and  _275
REMARK  106  A    between atoms: _275  and  _276
REMARK  107  A    between atoms: _275  and  _278
REMARK  108  A    between atoms: _278  and  _279
REMARK  109  A    between atoms: _282  and  _284
REMARK  110  A    between atoms: _284  and  _285
REMARK  111  A    between atoms: _284  and  _287
REMARK  112  A    between atoms: _287  and  _288
REMARK  113  A    between atoms: _288  and  _289
REMARK  114  A    between atoms: _292  and  _294
REMARK  115  A    between atoms: _294  and  _295
REMARK  116  A    between atoms: _298  and  _300
REMARK  117  A    between atoms: _300  and  _301
REMARK                            x       y       z     vdW  Elec       q    Type
REMARK                         _______ _______ _______ _____ _____    ______ ____
ROOT
ATOM      1  O   HOH     1      31.057 -15.363   1.641  0.00  0.00    +0.000 OA
ENDROOT
TORSDOF 0
REMARK  Name = ../refined-set-2016/4aia/4aia_pocket.pdb
REMARK  117 active torsions:
REMARK  status: ('A' for Active; 'I' for Inactive)
REMARK    1  A    between atoms: _1  and  _3
REMARK    2  A    between atoms: _3  and  _4
REMARK    3  A    between atoms: _3  and  _6
REMARK    4  A    between atoms: _8  and  _10
REMARK    5  A    between atoms: _10  and  _11
REMARK    6  A    between atoms: _14  and  _16
REMARK    7  A    between atoms: _16  and  _17
REMARK    8  A    between atoms: _16  and  _19
REMARK    9  A    between atoms: _19  and  _20
REMARK   10  A    between atoms: _26  and  _28
REMARK   11  A    between atoms: _28  and  _29
REMARK   12  A    between atoms: _28  and  _31
REMARK   13  A    between atoms: _31  and  _32
REMARK   14  A    between atoms: _37  and  _38
REMARK   15  A    between atoms: _40  and  _42
REMARK   16  A    between atoms: _42  and  _43
REMARK   17  A    between atoms: _42  and  _45
REMARK   18  A    between atoms: _45  and  _46
REMARK   19  A    between atoms: _51  and  _52
REMARK   20  A    between atoms: _54  and  _56
REMARK   21  A    between atoms: _56  and  _57
REMARK   22  A    between atoms: _56  and  _59
REMARK   23  A    between atoms: _59  and  _60
REMARK   24  A    between atoms: _65  and  _67
REMARK   25  A    between atoms: _67  and  _68
REMARK   26  A    between atoms: _67  and  _70
REMARK   27  A    between atoms: _73  and  _75
REMARK   28  A    between atoms: _75  and  _76
REMARK   29  A    between atoms: _75  and  _78
REMARK   30  A    between atoms: _78  and  _79
REMARK   31  A    between atoms: _89  and  _91
REMARK   32  A    between atoms: _91  and  _92
REMARK   33  A    between atoms: _94  and  _96
REMARK   34  A    between atoms: _96  and  _97
REMARK   35  A    between atoms: _96  and  _99
REMARK   36  A    between atoms: _99  and  _100
REMARK   37  A    between atoms: _103  and  _105
REMARK   38  A    between atoms: _105  and  _106
REMARK   39  A    between atoms: _105  and  _108
REMARK   40  A    between atoms: _108  and  _109
REMARK   41  A    between atoms: _112  and  _114
REMARK   42  A    between atoms: _114  and  _115
REMARK   43  A    between atoms: _114  and  _117
REMARK   44  A    between atoms: _117  and  _118
REMARK   45  A    between atoms: _118  and  _119
REMARK   46  A    between atoms: _122  and  _124
REMARK   47  A    between atoms: _124  and  _125
REMARK   48  A    between atoms: _124  and  _127
REMARK   49  A    between atoms: _127  and  _128
REMARK   50  A    between atoms: _130  and  _132
REMARK   51  A    between atoms: _132  and  _133
REMARK   52  A    between atoms: _132  and  _135
REMARK   53  A    between atoms: _135  and  _136
REMARK   54  A    between atoms: _141  and  _143
REMARK   55  A    between atoms: _143  and  _144
REMARK   56  A    between atoms: _147  and  _149
REMARK   57  A    between atoms: _149  and  _150
REMARK   58  A    between atoms: _149  and  _152
REMARK   59  A    between atoms: _152  and  _153
REMARK   60  A    between atoms: _156  and  _158
REMARK   61  A    between atoms: _158  and  _159
REMARK   62  A    between atoms: _158  and  _161
REMARK   63  A    between atoms: _161  and  _162
REMARK   64  A    between atoms: _164  and  _166
REMARK   65  A    between atoms: _166  and  _167
REMARK   66  A    between atoms: _166  and  _169
REMARK   67  A    between atoms: _169  and  _170
REMARK   68  A    between atoms: _180  and  _182
REMARK   69  A    between atoms: _182  and  _183
REMARK   70  A    between atoms: _182  and  _185
REMARK   71  A    between atoms: _185  and  _186
REMARK   72  A    between atoms: _189  and  _191
REMARK   73  A    between atoms: _191  and  _192
REMARK   74  A    between atoms: _191  and  _194
REMARK   75  A    between atoms: _194  and  _195
REMARK   76  A    between atoms: _198  and  _200
REMARK   77  A    between atoms: _200  and  _201
REMARK   78  A    between atoms: _200  and  _203
REMARK   79  A    between atoms: _203  and  _204
REMARK   80  A    between atoms: _207  and  _209
REMARK   81  A    between atoms: _209  and  _210
REMARK   82  A    between atoms: _209  and  _212
REMARK   83  A    between atoms: _212  and  _213
REMARK   84  A    between atoms: _213  and  _214
REMARK   85  A    between atoms: _214  and  _215
REMARK   86  A    between atoms: _224  and  _226
REMARK   87  A    between atoms: _226  and  _227
REMARK   88  A    between atoms: _226  and  _229
REMARK   89  A    between atoms: _232  and  _234
REMARK   90  A    between atoms: _234  and  _235
REMARK   91  A    between atoms: _234  and  _237
REMARK   92  A    between atoms: _237  and  _238
REMARK   93  A    between atoms: _241  and  _243
REMARK   94  A    between atoms: _243  and  _244
REMARK   95  A    between atoms: _243  and  _246
REMARK   96  A    between atoms: _246  and  _247
REMARK   97  A    between atoms: _253  and  _255
REMARK   98  A    between atoms: _255  and  _256
REMARK   99  A    between atoms: _255  and  _258
REMARK  100  A    between atoms: _258  and  _259
REMARK  101  A    between atoms: _261  and  _263
REMARK  102  A    between atoms: _263  and  _264
REMARK  103  A    between atoms: _263  and  _266
REMARK  104  A    between atoms: _266  and  _267
REMARK  105  A    between atoms: _273  and  _275
REMARK  106  A    between atoms: _275  and  _276
REMARK  107  A    between atoms: _275  and  _278
REMARK  108  A    between atoms: _278  and  _279
REMARK  109  A    between atoms: _282  and  _284
REMARK  110  A    between atoms: _284  and  _285
REMARK  111  A    between atoms: _284  and  _287
REMARK  112  A    between atoms: _287  and  _288
REMARK  113  A    between atoms: _288  and  _289
REMARK  114  A    between atoms: _292  and  _294
REMARK  115  A    between atoms: _294  and  _295
REMARK  116  A    between atoms: _298  and  _300
REMARK  117  A    between atoms: _300  and  _301
REMARK                            x       y       z     vdW  Elec       q    Type
REMARK                         _______ _______ _______ _____ _____    ______ ____
ROOT
ATOM      1  O   HOH     1      24.980 -23.708  -5.442  0.00  0.00    +0.000 OA
ENDROOT
TORSDOF 0
REMARK  Name = ../refined-set-2016/4aia/4aia_pocket.pdb
REMARK  117 active torsions:
REMARK  status: ('A' for Active; 'I' for Inactive)
REMARK    1  A    between atoms: _1  and  _3
REMARK    2  A    between atoms: _3  and  _4
REMARK    3  A    between atoms: _3  and  _6
REMARK    4  A    between atoms: _8  and  _10
REMARK    5  A    between atoms: _10  and  _11
REMARK    6  A    between atoms: _14  and  _16
REMARK    7  A    between atoms: _16  and  _17
REMARK    8  A    between atoms: _16  and  _19
REMARK    9  A    between atoms: _19  and  _20
REMARK   10  A    between atoms: _26  and  _28
REMARK   11  A    between atoms: _28  and  _29
REMARK   12  A    between atoms: _28  and  _31
REMARK   13  A    between atoms: _31  and  _32
REMARK   14  A    between atoms: _37  and  _38
REMARK   15  A    between atoms: _40  and  _42
REMARK   16  A    between atoms: _42  and  _43
REMARK   17  A    between atoms: _42  and  _45
REMARK   18  A    between atoms: _45  and  _46
REMARK   19  A    between atoms: _51  and  _52
REMARK   20  A    between atoms: _54  and  _56
REMARK   21  A    between atoms: _56  and  _57
REMARK   22  A    between atoms: _56  and  _59
REMARK   23  A    between atoms: _59  and  _60
REMARK   24  A    between atoms: _65  and  _67
REMARK   25  A    between atoms: _67  and  _68
REMARK   26  A    between atoms: _67  and  _70
REMARK   27  A    between atoms: _73  and  _75
REMARK   28  A    between atoms: _75  and  _76
REMARK   29  A    between atoms: _75  and  _78
REMARK   30  A    between atoms: _78  and  _79
REMARK   31  A    between atoms: _89  and  _91
REMARK   32  A    between atoms: _91  and  _92
REMARK   33  A    between atoms: _94  and  _96
REMARK   34  A    between atoms: _96  and  _97
REMARK   35  A    between atoms: _96  and  _99
REMARK   36  A    between atoms: _99  and  _100
REMARK   37  A    between atoms: _103  and  _105
REMARK   38  A    between atoms: _105  and  _106
REMARK   39  A    between atoms: _105  and  _108
REMARK   40  A    between atoms: _108  and  _109
REMARK   41  A    between atoms: _112  and  _114
REMARK   42  A    between atoms: _114  and  _115
REMARK   43  A    between atoms: _114  and  _117
REMARK   44  A    between atoms: _117  and  _118
REMARK   45  A    between atoms: _118  and  _119
REMARK   46  A    between atoms: _122  and  _124
REMARK   47  A    between atoms: _124  and  _125
REMARK   48  A    between atoms: _124  and  _127
REMARK   49  A    between atoms: _127  and  _128
REMARK   50  A    between atoms: _130  and  _132
REMARK   51  A    between atoms: _132  and  _133
REMARK   52  A    between atoms: _132  and  _135
REMARK   53  A    between atoms: _135  and  _136
REMARK   54  A    between atoms: _141  and  _143
REMARK   55  A    between atoms: _143  and  _144
REMARK   56  A    between atoms: _147  and  _149
REMARK   57  A    between atoms: _149  and  _150
REMARK   58  A    between atoms: _149  and  _152
REMARK   59  A    between atoms: _152  and  _153
REMARK   60  A    between atoms: _156  and  _158
REMARK   61  A    between atoms: _158  and  _159
REMARK   62  A    between atoms: _158  and  _161
REMARK   63  A    between atoms: _161  and  _162
REMARK   64  A    between atoms: _164  and  _166
REMARK   65  A    between atoms: _166  and  _167
REMARK   66  A    between atoms: _166  and  _169
REMARK   67  A    between atoms: _169  and  _170
REMARK   68  A    between atoms: _180  and  _182
REMARK   69  A    between atoms: _182  and  _183
REMARK   70  A    between atoms: _182  and  _185
REMARK   71  A    between atoms: _185  and  _186
REMARK   72  A    between atoms: _189  and  _191
REMARK   73  A    between atoms: _191  and  _192
REMARK   74  A    between atoms: _191  and  _194
REMARK   75  A    between atoms: _194  and  _195
REMARK   76  A    between atoms: _198  and  _200
REMARK   77  A    between atoms: _200  and  _201
REMARK   78  A    between atoms: _200  and  _203
REMARK   79  A    between atoms: _203  and  _204
REMARK   80  A    between atoms: _207  and  _209
REMARK   81  A    between atoms: _209  and  _210
REMARK   82  A    between atoms: _209  and  _212
REMARK   83  A    between atoms: _212  and  _213
REMARK   84  A    between atoms: _213  and  _214
REMARK   85  A    between atoms: _214  and  _215
REMARK   86  A    between atoms: _224  and  _226
REMARK   87  A    between atoms: _226  and  _227
REMARK   88  A    between atoms: _226  and  _229
REMARK   89  A    between atoms: _232  and  _234
REMARK   90  A    between atoms: _234  and  _235
REMARK   91  A    between atoms: _234  and  _237
REMARK   92  A    between atoms: _237  and  _238
REMARK   93  A    between atoms: _241  and  _243
REMARK   94  A    between atoms: _243  and  _244
REMARK   95  A    between atoms: _243  and  _246
REMARK   96  A    between atoms: _246  and  _247
REMARK   97  A    between atoms: _253  and  _255
REMARK   98  A    between atoms: _255  and  _256
REMARK   99  A    between atoms: _255  and  _258
REMARK  100  A    between atoms: _258  and  _259
REMARK  101  A    between atoms: _261  and  _263
REMARK  102  A    between atoms: _263  and  _264
REMARK  103  A    between atoms: _263  and  _266
REMARK  104  A    between atoms: _266  and  _267
REMARK  105  A    between atoms: _273  and  _275
REMARK  106  A    between atoms: _275  and  _276
REMARK  107  A    between atoms: _275  and  _278
REMARK  108  A    between atoms: _278  and  _279
REMARK  109  A    between atoms: _282  and  _284
REMARK  110  A    between atoms: _284  and  _285
REMARK  111  A    between atoms: _284  and  _287
REMARK  112  A    between atoms: _287  and  _288
REMARK  113  A    between atoms: _288  and  _289
REMARK  114  A    between atoms: _292  and  _294
REMARK  115  A    between atoms: _294  and  _295
REMARK  116  A    between atoms: _298  and  _300
REMARK  117  A    between atoms: _300  and  _301
REMARK                            x       y       z     vdW  Elec       q    Type
REMARK                         _______ _______ _______ _____ _____    ______ ____
ROOT
ATOM      1  O   HOH     1      31.210 -22.656  -3.439  0.00  0.00    +0.000 OA
ENDROOT
TORSDOF 0
REMARK  Name = ../refined-set-2016/4aia/4aia_pocket.pdb
REMARK  117 active torsions:
REMARK  status: ('A' for Active; 'I' for Inactive)
REMARK    1  A    between atoms: _1  and  _3
REMARK    2  A    between atoms: _3  and  _4
REMARK    3  A    between atoms: _3  and  _6
REMARK    4  A    between atoms: _8  and  _10
REMARK    5  A    between atoms: _10  and  _11
REMARK    6  A    between atoms: _14  and  _16
REMARK    7  A    between atoms: _16  and  _17
REMARK    8  A    between atoms: _16  and  _19
REMARK    9  A    between atoms: _19  and  _20
REMARK   10  A    between atoms: _26  and  _28
REMARK   11  A    between atoms: _28  and  _29
REMARK   12  A    between atoms: _28  and  _31
REMARK   13  A    between atoms: _31  and  _32
REMARK   14  A    between atoms: _37  and  _38
REMARK   15  A    between atoms: _40  and  _42
REMARK   16  A    between atoms: _42  and  _43
REMARK   17  A    between atoms: _42  and  _45
REMARK   18  A    between atoms: _45  and  _46
REMARK   19  A    between atoms: _51  and  _52
REMARK   20  A    between atoms: _54  and  _56
REMARK   21  A    between atoms: _56  and  _57
REMARK   22  A    between atoms: _56  and  _59
REMARK   23  A    between atoms: _59  and  _60
REMARK   24  A    between atoms: _65  and  _67
REMARK   25  A    between atoms: _67  and  _68
REMARK   26  A    between atoms: _67  and  _70
REMARK   27  A    between atoms: _73  and  _75
REMARK   28  A    between atoms: _75  and  _76
REMARK   29  A    between atoms: _75  and  _78
REMARK   30  A    between atoms: _78  and  _79
REMARK   31  A    between atoms: _89  and  _91
REMARK   32  A    between atoms: _91  and  _92
REMARK   33  A    between atoms: _94  and  _96
REMARK   34  A    between atoms: _96  and  _97
REMARK   35  A    between atoms: _96  and  _99
REMARK   36  A    between atoms: _99  and  _100
REMARK   37  A    between atoms: _103  and  _105
REMARK   38  A    between atoms: _105  and  _106
REMARK   39  A    between atoms: _105  and  _108
REMARK   40  A    between atoms: _108  and  _109
REMARK   41  A    between atoms: _112  and  _114
REMARK   42  A    between atoms: _114  and  _115
REMARK   43  A    between atoms: _114  and  _117
REMARK   44  A    between atoms: _117  and  _118
REMARK   45  A    between atoms: _118  and  _119
REMARK   46  A    between atoms: _122  and  _124
REMARK   47  A    between atoms: _124  and  _125
REMARK   48  A    between atoms: _124  and  _127
REMARK   49  A    between atoms: _127  and  _128
REMARK   50  A    between atoms: _130  and  _132
REMARK   51  A    between atoms: _132  and  _133
REMARK   52  A    between atoms: _132  and  _135
REMARK   53  A    between atoms: _135  and  _136
REMARK   54  A    between atoms: _141  and  _143
REMARK   55  A    between atoms: _143  and  _144
REMARK   56  A    between atoms: _147  and  _149
REMARK   57  A    between atoms: _149  and  _150
REMARK   58  A    between atoms: _149  and  _152
REMARK   59  A    between atoms: _152  and  _153
REMARK   60  A    between atoms: _156  and  _158
REMARK   61  A    between atoms: _158  and  _159
REMARK   62  A    between atoms: _158  and  _161
REMARK   63  A    between atoms: _161  and  _162
REMARK   64  A    between atoms: _164  and  _166
REMARK   65  A    between atoms: _166  and  _167
REMARK   66  A    between atoms: _166  and  _169
REMARK   67  A    between atoms: _169  and  _170
REMARK   68  A    between atoms: _180  and  _182
REMARK   69  A    between atoms: _182  and  _183
REMARK   70  A    between atoms: _182  and  _185
REMARK   71  A    between atoms: _185  and  _186
REMARK   72  A    between atoms: _189  and  _191
REMARK   73  A    between atoms: _191  and  _192
REMARK   74  A    between atoms: _191  and  _194
REMARK   75  A    between atoms: _194  and  _195
REMARK   76  A    between atoms: _198  and  _200
REMARK   77  A    between atoms: _200  and  _201
REMARK   78  A    between atoms: _200  and  _203
REMARK   79  A    between atoms: _203  and  _204
REMARK   80  A    between atoms: _207  and  _209
REMARK   81  A    between atoms: _209  and  _210
REMARK   82  A    between atoms: _209  and  _212
REMARK   83  A    between atoms: _212  and  _213
REMARK   84  A    between atoms: _213  and  _214
REMARK   85  A    between atoms: _214  and  _215
REMARK   86  A    between atoms: _224  and  _226
REMARK   87  A    between atoms: _226  and  _227
REMARK   88  A    between atoms: _226  and  _229
REMARK   89  A    between atoms: _232  and  _234
REMARK   90  A    between atoms: _234  and  _235
REMARK   91  A    between atoms: _234  and  _237
REMARK   92  A    between atoms: _237  and  _238
REMARK   93  A    between atoms: _241  and  _243
REMARK   94  A    between atoms: _243  and  _244
REMARK   95  A    between atoms: _243  and  _246
REMARK   96  A    between atoms: _246  and  _247
REMARK   97  A    between atoms: _253  and  _255
REMARK   98  A    between atoms: _255  and  _256
REMARK   99  A    between atoms: _255  and  _258
REMARK  100  A    between atoms: _258  and  _259
REMARK  101  A    between atoms: _261  and  _263
REMARK  102  A    between atoms: _263  and  _264
REMARK  103  A    between atoms: _263  and  _266
REMARK  104  A    between atoms: _266  and  _267
REMARK  105  A    between atoms: _273  and  _275
REMARK  106  A    between atoms: _275  and  _276
REMARK  107  A    between atoms: _275  and  _278
REMARK  108  A    between atoms: _278  and  _279
REMARK  109  A    between atoms: _282  and  _284
REMARK  110  A    between atoms: _284  and  _285
REMARK  111  A    between atoms: _284  and  _287
REMARK  112  A    between atoms: _287  and  _288
REMARK  113  A    between atoms: _288  and  _289
REMARK  114  A    between atoms: _292  and  _294
REMARK  115  A    between atoms: _294  and  _295
REMARK  116  A    between atoms: _298  and  _300
REMARK  117  A    between atoms: _300  and  _301
REMARK                            x       y       z     vdW  Elec       q    Type
REMARK                         _______ _______ _______ _____ _____    ______ ____
ROOT
ATOM      1  O   HOH     1      31.848 -19.390  -3.170  0.00  0.00    +0.000 OA
ENDROOT
TORSDOF 0
