REMARK  Name = ../refined-set-2016/3arw/3arw_pocket.pdb
REMARK  130 active torsions:
REMARK  status: ('A' for Active; 'I' for Inactive)
REMARK    1  A    between atoms: _1  and  _3
REMARK    2  A    between atoms: _3  and  _4
REMARK    3  A    between atoms: _3  and  _6
REMARK    4  A    between atoms: _6  and  _7
REMARK    5  A    between atoms: _17  and  _19
REMARK    6  A    between atoms: _19  and  _20
REMARK    7  A    between atoms: _19  and  _22
REMARK    8  A    between atoms: _22  and  _23
REMARK    9  A    between atoms: _29  and  _31
REMARK   10  A    between atoms: _31  and  _32
REMARK   11  A    between atoms: _31  and  _34
REMARK   12  A    between atoms: _34  and  _35
REMARK   13  A    between atoms: _37  and  _39
REMARK   14  A    between atoms: _39  and  _40
REMARK   15  A    between atoms: _39  and  _42
REMARK   16  A    between atoms: _42  and  _43
REMARK   17  A    between atoms: _45  and  _47
REMARK   18  A    between atoms: _47  and  _48
REMARK   19  A    between atoms: _47  and  _50
REMARK   20  A    between atoms: _53  and  _55
REMARK   21  A    between atoms: _55  and  _56
REMARK   22  A    between atoms: _58  and  _60
REMARK   23  A    between atoms: _60  and  _61
REMARK   24  A    between atoms: _60  and  _63
REMARK   25  A    between atoms: _63  and  _64
REMARK   26  A    between atoms: _74  and  _76
REMARK   27  A    between atoms: _76  and  _77
REMARK   28  A    between atoms: _76  and  _79
REMARK   29  A    between atoms: _79  and  _80
REMARK   30  A    between atoms: _83  and  _85
REMARK   31  A    between atoms: _85  and  _86
REMARK   32  A    between atoms: _85  and  _88
REMARK   33  A    between atoms: _88  and  _89
REMARK   34  A    between atoms: _92  and  _94
REMARK   35  A    between atoms: _94  and  _95
REMARK   36  A    between atoms: _94  and  _97
REMARK   37  A    between atoms: _97  and  _98
REMARK   38  A    between atoms: _98  and  _99
REMARK   39  A    between atoms: _102  and  _104
REMARK   40  A    between atoms: _104  and  _105
REMARK   41  A    between atoms: _104  and  _107
REMARK   42  A    between atoms: _107  and  _108
REMARK   43  A    between atoms: _114  and  _116
REMARK   44  A    between atoms: _116  and  _117
REMARK   45  A    between atoms: _119  and  _121
REMARK   46  A    between atoms: _121  and  _122
REMARK   47  A    between atoms: _124  and  _126
REMARK   48  A    between atoms: _126  and  _127
REMARK   49  A    between atoms: _130  and  _132
REMARK   50  A    between atoms: _132  and  _133
REMARK   51  A    between atoms: _132  and  _135
REMARK   52  A    between atoms: _135  and  _136
REMARK   53  A    between atoms: _136  and  _137
REMARK   54  A    between atoms: _137  and  _138
REMARK   55  A    between atoms: _138  and  _139
REMARK   56  A    between atoms: _143  and  _145
REMARK   57  A    between atoms: _145  and  _146
REMARK   58  A    between atoms: _145  and  _148
REMARK   59  A    between atoms: _148  and  _149
REMARK   60  A    between atoms: _149  and  _150
REMARK   61  A    between atoms: _152  and  _154
REMARK   62  A    between atoms: _154  and  _155
REMARK   63  A    between atoms: _154  and  _157
REMARK   64  A    between atoms: _157  and  _158
REMARK   65  A    between atoms: _163  and  _164
REMARK   66  A    between atoms: _166  and  _168
REMARK   67  A    between atoms: _168  and  _169
REMARK   68  A    between atoms: _168  and  _171
REMARK   69  A    between atoms: _171  and  _172
REMARK   70  A    between atoms: _175  and  _177
REMARK   71  A    between atoms: _177  and  _178
REMARK   72  A    between atoms: _177  and  _180
REMARK   73  A    between atoms: _180  and  _181
REMARK   74  A    between atoms: _187  and  _189
REMARK   75  A    between atoms: _189  and  _190
REMARK   76  A    between atoms: _189  and  _192
REMARK   77  A    between atoms: _192  and  _193
REMARK   78  A    between atoms: _198  and  _199
REMARK   79  A    between atoms: _201  and  _203
REMARK   80  A    between atoms: _203  and  _204
REMARK   81  A    between atoms: _206  and  _208
REMARK   82  A    between atoms: _208  and  _209
REMARK   83  A    between atoms: _211  and  _213
REMARK   84  A    between atoms: _213  and  _214
REMARK   85  A    between atoms: _213  and  _216
REMARK   86  A    between atoms: _216  and  _217
REMARK   87  A    between atoms: _227  and  _229
REMARK   88  A    between atoms: _229  and  _230
REMARK   89  A    between atoms: _229  and  _232
REMARK   90  A    between atoms: _232  and  _233
REMARK   91  A    between atoms: _238  and  _240
REMARK   92  A    between atoms: _240  and  _241
REMARK   93  A    between atoms: _240  and  _243
REMARK   94  A    between atoms: _243  and  _244
REMARK   95  A    between atoms: _249  and  _250
REMARK   96  A    between atoms: _252  and  _254
REMARK   97  A    between atoms: _254  and  _255
REMARK   98  A    between atoms: _254  and  _257
REMARK   99  A    between atoms: _257  and  _258
REMARK  100  A    between atoms: _263  and  _264
REMARK  101  A    between atoms: _266  and  _268
REMARK  102  A    between atoms: _268  and  _269
REMARK  103  A    between atoms: _268  and  _271
REMARK  104  A    between atoms: _271  and  _272
REMARK  105  A    between atoms: _272  and  _273
REMARK  106  A    between atoms: _273  and  _274
REMARK  107  A    between atoms: _283  and  _285
REMARK  108  A    between atoms: _285  and  _286
REMARK  109  A    between atoms: _285  and  _288
REMARK  110  A    between atoms: _288  and  _289
REMARK  111  A    between atoms: _289  and  _290
REMARK  112  A    between atoms: _290  and  _291
REMARK  113  A    between atoms: _291  and  _292
REMARK  114  A    between atoms: _296  and  _298
REMARK  115  A    between atoms: _298  and  _299
REMARK  116  A    between atoms: _298  and  _301
REMARK  117  A    between atoms: _301  and  _302
REMARK  118  A    between atoms: _302  and  _303
REMARK  119  A    between atoms: _306  and  _308
REMARK  120  A    between atoms: _308  and  _309
REMARK  121  A    between atoms: _308  and  _311
REMARK  122  A    between atoms: _314  and  _316
REMARK  123  A    between atoms: _316  and  _317
REMARK  124  A    between atoms: _316  and  _319
REMARK  125  A    between atoms: _319  and  _320
REMARK  126  A    between atoms: _330  and  _332
REMARK  127  A    between atoms: _332  and  _333
REMARK  128  A    between atoms: _332  and  _335
REMARK  129  A    between atoms: _335  and  _336
REMARK  130  A    between atoms: _336  and  _337
REMARK                            x       y       z     vdW  Elec       q    Type
REMARK                         _______ _______ _______ _____ _____    ______ ____
ROOT
ATOM      1  CG  TRP A   1       5.437  -2.891  30.701  0.00  0.00    -0.002 A 
ATOM      2  CD2 TRP A   1       5.549  -4.197  30.107  0.00  0.00    +0.013 A 
ATOM      3  CE3 TRP A   1       5.023  -5.457  30.428  0.00  0.00    +0.001 A 
ATOM      4  CZ3 TRP A   1       5.273  -6.534  29.565  0.00  0.00    +0.000 A 
ATOM      5  CH2 TRP A   1       6.097  -6.356  28.421  0.00  0.00    +0.001 A 
ATOM      6  CZ2 TRP A   1       6.624  -5.119  28.075  0.00  0.00    +0.017 A 
ATOM      7  CE2 TRP A   1       6.309  -4.042  28.920  0.00  0.00    +0.056 A 
ATOM      8  NE1 TRP A   1       6.674  -2.723  28.791  0.00  0.00    -0.352 N 
ATOM      9  HE1 TRP A   1       7.208  -2.296  28.007  0.00  0.00    +0.166 HD
ATOM     10  CD1 TRP A   1       6.179  -2.066  29.933  0.00  0.00    +0.068 A 
ENDROOT
BRANCH   1  11
ATOM     11  CB  TRP A   1       4.710  -2.523  31.954  0.00  0.00    +0.053 C 
BRANCH  11  12
ATOM     12  CA  TRP A   1       3.257  -2.115  31.754  0.00  0.00    +0.137 C 
BRANCH  12  13
ATOM     13  N   TRP A   1       2.494  -3.198  31.091  0.00  0.00    -0.239 NA
ATOM     14  H   TRP A   1       3.026  -3.855  30.486  0.00  0.00    +0.142 HD
ENDBRANCH  12  13
BRANCH  12  15
ATOM     15  C   TRP A   1       3.181  -0.834  30.955  0.00  0.00    +0.224 C 
ATOM     16  O   TRP A   1       3.768   0.195  31.421  0.00  0.00    -0.287 OA
ENDBRANCH  12  15
ENDBRANCH  11  12
ENDBRANCH   1  11
TORSDOF 4
REMARK  Name = ../refined-set-2016/3arw/3arw_pocket.pdb
REMARK  130 active torsions:
REMARK  status: ('A' for Active; 'I' for Inactive)
REMARK    1  A    between atoms: _1  and  _3
REMARK    2  A    between atoms: _3  and  _4
REMARK    3  A    between atoms: _3  and  _6
REMARK    4  A    between atoms: _6  and  _7
REMARK    5  A    between atoms: _17  and  _19
REMARK    6  A    between atoms: _19  and  _20
REMARK    7  A    between atoms: _19  and  _22
REMARK    8  A    between atoms: _22  and  _23
REMARK    9  A    between atoms: _29  and  _31
REMARK   10  A    between atoms: _31  and  _32
REMARK   11  A    between atoms: _31  and  _34
REMARK   12  A    between atoms: _34  and  _35
REMARK   13  A    between atoms: _37  and  _39
REMARK   14  A    between atoms: _39  and  _40
REMARK   15  A    between atoms: _39  and  _42
REMARK   16  A    between atoms: _42  and  _43
REMARK   17  A    between atoms: _45  and  _47
REMARK   18  A    between atoms: _47  and  _48
REMARK   19  A    between atoms: _47  and  _50
REMARK   20  A    between atoms: _53  and  _55
REMARK   21  A    between atoms: _55  and  _56
REMARK   22  A    between atoms: _58  and  _60
REMARK   23  A    between atoms: _60  and  _61
REMARK   24  A    between atoms: _60  and  _63
REMARK   25  A    between atoms: _63  and  _64
REMARK   26  A    between atoms: _74  and  _76
REMARK   27  A    between atoms: _76  and  _77
REMARK   28  A    between atoms: _76  and  _79
REMARK   29  A    between atoms: _79  and  _80
REMARK   30  A    between atoms: _83  and  _85
REMARK   31  A    between atoms: _85  and  _86
REMARK   32  A    between atoms: _85  and  _88
REMARK   33  A    between atoms: _88  and  _89
REMARK   34  A    between atoms: _92  and  _94
REMARK   35  A    between atoms: _94  and  _95
REMARK   36  A    between atoms: _94  and  _97
REMARK   37  A    between atoms: _97  and  _98
REMARK   38  A    between atoms: _98  and  _99
REMARK   39  A    between atoms: _102  and  _104
REMARK   40  A    between atoms: _104  and  _105
REMARK   41  A    between atoms: _104  and  _107
REMARK   42  A    between atoms: _107  and  _108
REMARK   43  A    between atoms: _114  and  _116
REMARK   44  A    between atoms: _116  and  _117
REMARK   45  A    between atoms: _119  and  _121
REMARK   46  A    between atoms: _121  and  _122
REMARK   47  A    between atoms: _124  and  _126
REMARK   48  A    between atoms: _126  and  _127
REMARK   49  A    between atoms: _130  and  _132
REMARK   50  A    between atoms: _132  and  _133
REMARK   51  A    between atoms: _132  and  _135
REMARK   52  A    between atoms: _135  and  _136
REMARK   53  A    between atoms: _136  and  _137
REMARK   54  A    between atoms: _137  and  _138
REMARK   55  A    between atoms: _138  and  _139
REMARK   56  A    between atoms: _143  and  _145
REMARK   57  A    between atoms: _145  and  _146
REMARK   58  A    between atoms: _145  and  _148
REMARK   59  A    between atoms: _148  and  _149
REMARK   60  A    between atoms: _149  and  _150
REMARK   61  A    between atoms: _152  and  _154
REMARK   62  A    between atoms: _154  and  _155
REMARK   63  A    between atoms: _154  and  _157
REMARK   64  A    between atoms: _157  and  _158
REMARK   65  A    between atoms: _163  and  _164
REMARK   66  A    between atoms: _166  and  _168
REMARK   67  A    between atoms: _168  and  _169
REMARK   68  A    between atoms: _168  and  _171
REMARK   69  A    between atoms: _171  and  _172
REMARK   70  A    between atoms: _175  and  _177
REMARK   71  A    between atoms: _177  and  _178
REMARK   72  A    between atoms: _177  and  _180
REMARK   73  A    between atoms: _180  and  _181
REMARK   74  A    between atoms: _187  and  _189
REMARK   75  A    between atoms: _189  and  _190
REMARK   76  A    between atoms: _189  and  _192
REMARK   77  A    between atoms: _192  and  _193
REMARK   78  A    between atoms: _198  and  _199
REMARK   79  A    between atoms: _201  and  _203
REMARK   80  A    between atoms: _203  and  _204
REMARK   81  A    between atoms: _206  and  _208
REMARK   82  A    between atoms: _208  and  _209
REMARK   83  A    between atoms: _211  and  _213
REMARK   84  A    between atoms: _213  and  _214
REMARK   85  A    between atoms: _213  and  _216
REMARK   86  A    between atoms: _216  and  _217
REMARK   87  A    between atoms: _227  and  _229
REMARK   88  A    between atoms: _229  and  _230
REMARK   89  A    between atoms: _229  and  _232
REMARK   90  A    between atoms: _232  and  _233
REMARK   91  A    between atoms: _238  and  _240
REMARK   92  A    between atoms: _240  and  _241
REMARK   93  A    between atoms: _240  and  _243
REMARK   94  A    between atoms: _243  and  _244
REMARK   95  A    between atoms: _249  and  _250
REMARK   96  A    between atoms: _252  and  _254
REMARK   97  A    between atoms: _254  and  _255
REMARK   98  A    between atoms: _254  and  _257
REMARK   99  A    between atoms: _257  and  _258
REMARK  100  A    between atoms: _263  and  _264
REMARK  101  A    between atoms: _266  and  _268
REMARK  102  A    between atoms: _268  and  _269
REMARK  103  A    between atoms: _268  and  _271
REMARK  104  A    between atoms: _271  and  _272
REMARK  105  A    between atoms: _272  and  _273
REMARK  106  A    between atoms: _273  and  _274
REMARK  107  A    between atoms: _283  and  _285
REMARK  108  A    between atoms: _285  and  _286
REMARK  109  A    between atoms: _285  and  _288
REMARK  110  A    between atoms: _288  and  _289
REMARK  111  A    between atoms: _289  and  _290
REMARK  112  A    between atoms: _290  and  _291
REMARK  113  A    between atoms: _291  and  _292
REMARK  114  A    between atoms: _296  and  _298
REMARK  115  A    between atoms: _298  and  _299
REMARK  116  A    between atoms: _298  and  _301
REMARK  117  A    between atoms: _301  and  _302
REMARK  118  A    between atoms: _302  and  _303
REMARK  119  A    between atoms: _306  and  _308
REMARK  120  A    between atoms: _308  and  _309
REMARK  121  A    between atoms: _308  and  _311
REMARK  122  A    between atoms: _314  and  _316
REMARK  123  A    between atoms: _316  and  _317
REMARK  124  A    between atoms: _316  and  _319
REMARK  125  A    between atoms: _319  and  _320
REMARK  126  A    between atoms: _330  and  _332
REMARK  127  A    between atoms: _332  and  _333
REMARK  128  A    between atoms: _332  and  _335
REMARK  129  A    between atoms: _335  and  _336
REMARK  130  A    between atoms: _336  and  _337
REMARK                            x       y       z     vdW  Elec       q    Type
REMARK                         _______ _______ _______ _____ _____    ______ ____
ROOT
ATOM      1  CB  PHE A   1       4.240 -11.449  28.546  0.00  0.00    +0.051 C 
ENDROOT
BRANCH   1   2
ATOM      2  CG  PHE A   1       4.700 -10.981  27.193  0.00  0.00    -0.020 A 
ATOM      3  CD2 PHE A   1       5.301  -9.716  27.055  0.00  0.00    -0.004 A 
ATOM      4  CE2 PHE A   1       5.668  -9.260  25.777  0.00  0.00    -0.000 A 
ATOM      5  CZ  PHE A   1       5.441 -10.070  24.593  0.00  0.00    -0.000 A 
ATOM      6  CE1 PHE A   1       4.834 -11.310  24.729  0.00  0.00    -0.000 A 
ATOM      7  CD1 PHE A   1       4.417 -11.765  26.045  0.00  0.00    -0.004 A 
ENDBRANCH   1   2
BRANCH   1   8
ATOM      8  CA  PHE A   1       2.790 -11.059  28.860  0.00  0.00    +0.137 C 
BRANCH   8   9
ATOM      9  N   PHE A   1       2.614  -9.583  29.067  0.00  0.00    -0.239 NA
ATOM     10  H   PHE A   1       2.877  -9.195  29.996  0.00  0.00    +0.142 HD
ENDBRANCH   8   9
BRANCH   8  11
ATOM     11  C   PHE A   1       2.428 -11.695  30.161  0.00  0.00    +0.224 C 
ATOM     12  O   PHE A   1       2.716 -11.140  31.256  0.00  0.00    -0.287 OA
ENDBRANCH   8  11
ENDBRANCH   1   8
TORSDOF 4
REMARK  Name = ../refined-set-2016/3arw/3arw_pocket.pdb
REMARK  130 active torsions:
REMARK  status: ('A' for Active; 'I' for Inactive)
REMARK    1  A    between atoms: _1  and  _3
REMARK    2  A    between atoms: _3  and  _4
REMARK    3  A    between atoms: _3  and  _6
REMARK    4  A    between atoms: _6  and  _7
REMARK    5  A    between atoms: _17  and  _19
REMARK    6  A    between atoms: _19  and  _20
REMARK    7  A    between atoms: _19  and  _22
REMARK    8  A    between atoms: _22  and  _23
REMARK    9  A    between atoms: _29  and  _31
REMARK   10  A    between atoms: _31  and  _32
REMARK   11  A    between atoms: _31  and  _34
REMARK   12  A    between atoms: _34  and  _35
REMARK   13  A    between atoms: _37  and  _39
REMARK   14  A    between atoms: _39  and  _40
REMARK   15  A    between atoms: _39  and  _42
REMARK   16  A    between atoms: _42  and  _43
REMARK   17  A    between atoms: _45  and  _47
REMARK   18  A    between atoms: _47  and  _48
REMARK   19  A    between atoms: _47  and  _50
REMARK   20  A    between atoms: _53  and  _55
REMARK   21  A    between atoms: _55  and  _56
REMARK   22  A    between atoms: _58  and  _60
REMARK   23  A    between atoms: _60  and  _61
REMARK   24  A    between atoms: _60  and  _63
REMARK   25  A    between atoms: _63  and  _64
REMARK   26  A    between atoms: _74  and  _76
REMARK   27  A    between atoms: _76  and  _77
REMARK   28  A    between atoms: _76  and  _79
REMARK   29  A    between atoms: _79  and  _80
REMARK   30  A    between atoms: _83  and  _85
REMARK   31  A    between atoms: _85  and  _86
REMARK   32  A    between atoms: _85  and  _88
REMARK   33  A    between atoms: _88  and  _89
REMARK   34  A    between atoms: _92  and  _94
REMARK   35  A    between atoms: _94  and  _95
REMARK   36  A    between atoms: _94  and  _97
REMARK   37  A    between atoms: _97  and  _98
REMARK   38  A    between atoms: _98  and  _99
REMARK   39  A    between atoms: _102  and  _104
REMARK   40  A    between atoms: _104  and  _105
REMARK   41  A    between atoms: _104  and  _107
REMARK   42  A    between atoms: _107  and  _108
REMARK   43  A    between atoms: _114  and  _116
REMARK   44  A    between atoms: _116  and  _117
REMARK   45  A    between atoms: _119  and  _121
REMARK   46  A    between atoms: _121  and  _122
REMARK   47  A    between atoms: _124  and  _126
REMARK   48  A    between atoms: _126  and  _127
REMARK   49  A    between atoms: _130  and  _132
REMARK   50  A    between atoms: _132  and  _133
REMARK   51  A    between atoms: _132  and  _135
REMARK   52  A    between atoms: _135  and  _136
REMARK   53  A    between atoms: _136  and  _137
REMARK   54  A    between atoms: _137  and  _138
REMARK   55  A    between atoms: _138  and  _139
REMARK   56  A    between atoms: _143  and  _145
REMARK   57  A    between atoms: _145  and  _146
REMARK   58  A    between atoms: _145  and  _148
REMARK   59  A    between atoms: _148  and  _149
REMARK   60  A    between atoms: _149  and  _150
REMARK   61  A    between atoms: _152  and  _154
REMARK   62  A    between atoms: _154  and  _155
REMARK   63  A    between atoms: _154  and  _157
REMARK   64  A    between atoms: _157  and  _158
REMARK   65  A    between atoms: _163  and  _164
REMARK   66  A    between atoms: _166  and  _168
REMARK   67  A    between atoms: _168  and  _169
REMARK   68  A    between atoms: _168  and  _171
REMARK   69  A    between atoms: _171  and  _172
REMARK   70  A    between atoms: _175  and  _177
REMARK   71  A    between atoms: _177  and  _178
REMARK   72  A    between atoms: _177  and  _180
REMARK   73  A    between atoms: _180  and  _181
REMARK   74  A    between atoms: _187  and  _189
REMARK   75  A    between atoms: _189  and  _190
REMARK   76  A    between atoms: _189  and  _192
REMARK   77  A    between atoms: _192  and  _193
REMARK   78  A    between atoms: _198  and  _199
REMARK   79  A    between atoms: _201  and  _203
REMARK   80  A    between atoms: _203  and  _204
REMARK   81  A    between atoms: _206  and  _208
REMARK   82  A    between atoms: _208  and  _209
REMARK   83  A    between atoms: _211  and  _213
REMARK   84  A    between atoms: _213  and  _214
REMARK   85  A    between atoms: _213  and  _216
REMARK   86  A    between atoms: _216  and  _217
REMARK   87  A    between atoms: _227  and  _229
REMARK   88  A    between atoms: _229  and  _230
REMARK   89  A    between atoms: _229  and  _232
REMARK   90  A    between atoms: _232  and  _233
REMARK   91  A    between atoms: _238  and  _240
REMARK   92  A    between atoms: _240  and  _241
REMARK   93  A    between atoms: _240  and  _243
REMARK   94  A    between atoms: _243  and  _244
REMARK   95  A    between atoms: _249  and  _250
REMARK   96  A    between atoms: _252  and  _254
REMARK   97  A    between atoms: _254  and  _255
REMARK   98  A    between atoms: _254  and  _257
REMARK   99  A    between atoms: _257  and  _258
REMARK  100  A    between atoms: _263  and  _264
REMARK  101  A    between atoms: _266  and  _268
REMARK  102  A    between atoms: _268  and  _269
REMARK  103  A    between atoms: _268  and  _271
REMARK  104  A    between atoms: _271  and  _272
REMARK  105  A    between atoms: _272  and  _273
REMARK  106  A    between atoms: _273  and  _274
REMARK  107  A    between atoms: _283  and  _285
REMARK  108  A    between atoms: _285  and  _286
REMARK  109  A    between atoms: _285  and  _288
REMARK  110  A    between atoms: _288  and  _289
REMARK  111  A    between atoms: _289  and  _290
REMARK  112  A    between atoms: _290  and  _291
REMARK  113  A    between atoms: _291  and  _292
REMARK  114  A    between atoms: _296  and  _298
REMARK  115  A    between atoms: _298  and  _299
REMARK  116  A    between atoms: _298  and  _301
REMARK  117  A    between atoms: _301  and  _302
REMARK  118  A    between atoms: _302  and  _303
REMARK  119  A    between atoms: _306  and  _308
REMARK  120  A    between atoms: _308  and  _309
REMARK  121  A    between atoms: _308  and  _311
REMARK  122  A    between atoms: _314  and  _316
REMARK  123  A    between atoms: _316  and  _317
REMARK  124  A    between atoms: _316  and  _319
REMARK  125  A    between atoms: _319  and  _320
REMARK  126  A    between atoms: _330  and  _332
REMARK  127  A    between atoms: _332  and  _333
REMARK  128  A    between atoms: _332  and  _335
REMARK  129  A    between atoms: _335  and  _336
REMARK  130  A    between atoms: _336  and  _337
REMARK                            x       y       z     vdW  Elec       q    Type
REMARK                         _______ _______ _______ _____ _____    ______ ____
ROOT
ATOM      1  CA  SER A   1      15.850 -13.872  32.954  0.00  0.00    +0.163 C 
ENDROOT
BRANCH   1   2
ATOM      2  N   SER A   1      15.790 -14.895  34.039  0.00  0.00    -0.237 NA
ATOM      3  H   SER A   1      15.407 -15.839  33.832  0.00  0.00    +0.142 HD
ENDBRANCH   1   2
BRANCH   1   4
ATOM      4  CB  SER A   1      15.091 -12.587  33.219  0.00  0.00    +0.227 C 
ATOM      5  OG  SER A   1      15.405 -11.526  32.713  0.00  0.00    -0.287 OA
ENDBRANCH   1   4
BRANCH   1   6
ATOM      6  C   SER A   1      15.398 -14.455  31.614  0.00  0.00    +0.162 C 
BRANCH   6   7
ATOM      7  O   SER A   1      16.336 -15.519  31.258  0.00  0.00    -0.380 OA
ATOM      8  H   SER A   1      16.324 -16.216  31.961  0.00  0.00    +0.211 HD
ENDBRANCH   6   7
ENDBRANCH   1   6
TORSDOF 4
REMARK  Name = ../refined-set-2016/3arw/3arw_pocket.pdb
REMARK  130 active torsions:
REMARK  status: ('A' for Active; 'I' for Inactive)
REMARK    1  A    between atoms: _1  and  _3
REMARK    2  A    between atoms: _3  and  _4
REMARK    3  A    between atoms: _3  and  _6
REMARK    4  A    between atoms: _6  and  _7
REMARK    5  A    between atoms: _17  and  _19
REMARK    6  A    between atoms: _19  and  _20
REMARK    7  A    between atoms: _19  and  _22
REMARK    8  A    between atoms: _22  and  _23
REMARK    9  A    between atoms: _29  and  _31
REMARK   10  A    between atoms: _31  and  _32
REMARK   11  A    between atoms: _31  and  _34
REMARK   12  A    between atoms: _34  and  _35
REMARK   13  A    between atoms: _37  and  _39
REMARK   14  A    between atoms: _39  and  _40
REMARK   15  A    between atoms: _39  and  _42
REMARK   16  A    between atoms: _42  and  _43
REMARK   17  A    between atoms: _45  and  _47
REMARK   18  A    between atoms: _47  and  _48
REMARK   19  A    between atoms: _47  and  _50
REMARK   20  A    between atoms: _53  and  _55
REMARK   21  A    between atoms: _55  and  _56
REMARK   22  A    between atoms: _58  and  _60
REMARK   23  A    between atoms: _60  and  _61
REMARK   24  A    between atoms: _60  and  _63
REMARK   25  A    between atoms: _63  and  _64
REMARK   26  A    between atoms: _74  and  _76
REMARK   27  A    between atoms: _76  and  _77
REMARK   28  A    between atoms: _76  and  _79
REMARK   29  A    between atoms: _79  and  _80
REMARK   30  A    between atoms: _83  and  _85
REMARK   31  A    between atoms: _85  and  _86
REMARK   32  A    between atoms: _85  and  _88
REMARK   33  A    between atoms: _88  and  _89
REMARK   34  A    between atoms: _92  and  _94
REMARK   35  A    between atoms: _94  and  _95
REMARK   36  A    between atoms: _94  and  _97
REMARK   37  A    between atoms: _97  and  _98
REMARK   38  A    between atoms: _98  and  _99
REMARK   39  A    between atoms: _102  and  _104
REMARK   40  A    between atoms: _104  and  _105
REMARK   41  A    between atoms: _104  and  _107
REMARK   42  A    between atoms: _107  and  _108
REMARK   43  A    between atoms: _114  and  _116
REMARK   44  A    between atoms: _116  and  _117
REMARK   45  A    between atoms: _119  and  _121
REMARK   46  A    between atoms: _121  and  _122
REMARK   47  A    between atoms: _124  and  _126
REMARK   48  A    between atoms: _126  and  _127
REMARK   49  A    between atoms: _130  and  _132
REMARK   50  A    between atoms: _132  and  _133
REMARK   51  A    between atoms: _132  and  _135
REMARK   52  A    between atoms: _135  and  _136
REMARK   53  A    between atoms: _136  and  _137
REMARK   54  A    between atoms: _137  and  _138
REMARK   55  A    between atoms: _138  and  _139
REMARK   56  A    between atoms: _143  and  _145
REMARK   57  A    between atoms: _145  and  _146
REMARK   58  A    between atoms: _145  and  _148
REMARK   59  A    between atoms: _148  and  _149
REMARK   60  A    between atoms: _149  and  _150
REMARK   61  A    between atoms: _152  and  _154
REMARK   62  A    between atoms: _154  and  _155
REMARK   63  A    between atoms: _154  and  _157
REMARK   64  A    between atoms: _157  and  _158
REMARK   65  A    between atoms: _163  and  _164
REMARK   66  A    between atoms: _166  and  _168
REMARK   67  A    between atoms: _168  and  _169
REMARK   68  A    between atoms: _168  and  _171
REMARK   69  A    between atoms: _171  and  _172
REMARK   70  A    between atoms: _175  and  _177
REMARK   71  A    between atoms: _177  and  _178
REMARK   72  A    between atoms: _177  and  _180
REMARK   73  A    between atoms: _180  and  _181
REMARK   74  A    between atoms: _187  and  _189
REMARK   75  A    between atoms: _189  and  _190
REMARK   76  A    between atoms: _189  and  _192
REMARK   77  A    between atoms: _192  and  _193
REMARK   78  A    between atoms: _198  and  _199
REMARK   79  A    between atoms: _201  and  _203
REMARK   80  A    between atoms: _203  and  _204
REMARK   81  A    between atoms: _206  and  _208
REMARK   82  A    between atoms: _208  and  _209
REMARK   83  A    between atoms: _211  and  _213
REMARK   84  A    between atoms: _213  and  _214
REMARK   85  A    between atoms: _213  and  _216
REMARK   86  A    between atoms: _216  and  _217
REMARK   87  A    between atoms: _227  and  _229
REMARK   88  A    between atoms: _229  and  _230
REMARK   89  A    between atoms: _229  and  _232
REMARK   90  A    between atoms: _232  and  _233
REMARK   91  A    between atoms: _238  and  _240
REMARK   92  A    between atoms: _240  and  _241
REMARK   93  A    between atoms: _240  and  _243
REMARK   94  A    between atoms: _243  and  _244
REMARK   95  A    between atoms: _249  and  _250
REMARK   96  A    between atoms: _252  and  _254
REMARK   97  A    between atoms: _254  and  _255
REMARK   98  A    between atoms: _254  and  _257
REMARK   99  A    between atoms: _257  and  _258
REMARK  100  A    between atoms: _263  and  _264
REMARK  101  A    between atoms: _266  and  _268
REMARK  102  A    between atoms: _268  and  _269
REMARK  103  A    between atoms: _268  and  _271
REMARK  104  A    between atoms: _271  and  _272
REMARK  105  A    between atoms: _272  and  _273
REMARK  106  A    between atoms: _273  and  _274
REMARK  107  A    between atoms: _283  and  _285
REMARK  108  A    between atoms: _285  and  _286
REMARK  109  A    between atoms: _285  and  _288
REMARK  110  A    between atoms: _288  and  _289
REMARK  111  A    between atoms: _289  and  _290
REMARK  112  A    between atoms: _290  and  _291
REMARK  113  A    between atoms: _291  and  _292
REMARK  114  A    between atoms: _296  and  _298
REMARK  115  A    between atoms: _298  and  _299
REMARK  116  A    between atoms: _298  and  _301
REMARK  117  A    between atoms: _301  and  _302
REMARK  118  A    between atoms: _302  and  _303
REMARK  119  A    between atoms: _306  and  _308
REMARK  120  A    between atoms: _308  and  _309
REMARK  121  A    between atoms: _308  and  _311
REMARK  122  A    between atoms: _314  and  _316
REMARK  123  A    between atoms: _316  and  _317
REMARK  124  A    between atoms: _316  and  _319
REMARK  125  A    between atoms: _319  and  _320
REMARK  126  A    between atoms: _330  and  _332
REMARK  127  A    between atoms: _332  and  _333
REMARK  128  A    between atoms: _332  and  _335
REMARK  129  A    between atoms: _335  and  _336
REMARK  130  A    between atoms: _336  and  _337
REMARK                            x       y       z     vdW  Elec       q    Type
REMARK                         _______ _______ _______ _____ _____    ______ ____
ROOT
ATOM      1  C   SER A   1      16.821  -7.254  33.081  0.00  0.00    +0.241 C 
ATOM      2  N   VAL A   2      15.552  -7.150  33.487  0.00  0.00    -0.298 N 
ATOM      3  H   VAL A   2      15.113  -7.948  33.989  0.00  0.00    +0.150 HD
ATOM      4  O   SER A   1      17.395  -6.277  32.561  0.00  0.00    -0.274 OA
ENDROOT
BRANCH   1   5
ATOM      5  CA  SER A   1      17.628  -8.564  33.329  0.00  0.00    +0.174 C 
BRANCH   5   6
ATOM      6  N   SER A   1      16.985  -9.464  34.344  0.00  0.00    -0.236 NA
ATOM      7  H   SER A   1      16.664 -10.411  34.057  0.00  0.00    +0.142 HD
ENDBRANCH   5   6
BRANCH   5   8
ATOM      8  CB  SER A   1      17.831  -9.347  32.011  0.00  0.00    +0.163 C 
BRANCH   8   9
ATOM      9  OG  SER A   1      16.570  -9.526  31.318  0.00  0.00    -0.380 OA
ATOM     10  H   SER A   1      15.946 -10.031  31.897  0.00  0.00    +0.211 HD
ENDBRANCH   8   9
ENDBRANCH   5   8
ENDBRANCH   1   5
BRANCH   2  11
ATOM     11  CA  VAL A   2      14.755  -5.926  33.240  0.00  0.00    +0.137 C 
BRANCH  11  12
ATOM     12  CB  VAL A   2      13.262  -6.316  33.005  0.00  0.00    +0.026 C 
ATOM     13  CG2 VAL A   2      12.322  -5.134  33.164  0.00  0.00    +0.002 C 
ATOM     14  CG1 VAL A   2      13.128  -6.847  31.566  0.00  0.00    +0.002 C 
ENDBRANCH  11  12
BRANCH  11  15
ATOM     15  C   VAL A   2      14.928  -5.015  34.432  0.00  0.00    +0.227 C 
ATOM     16  O   VAL A   2      14.533  -3.865  34.369  0.00  0.00    -0.286 OA
ENDBRANCH  11  15
ENDBRANCH   2  11
TORSDOF 7
REMARK  Name = ../refined-set-2016/3arw/3arw_pocket.pdb
REMARK  130 active torsions:
REMARK  status: ('A' for Active; 'I' for Inactive)
REMARK    1  A    between atoms: _1  and  _3
REMARK    2  A    between atoms: _3  and  _4
REMARK    3  A    between atoms: _3  and  _6
REMARK    4  A    between atoms: _6  and  _7
REMARK    5  A    between atoms: _17  and  _19
REMARK    6  A    between atoms: _19  and  _20
REMARK    7  A    between atoms: _19  and  _22
REMARK    8  A    between atoms: _22  and  _23
REMARK    9  A    between atoms: _29  and  _31
REMARK   10  A    between atoms: _31  and  _32
REMARK   11  A    between atoms: _31  and  _34
REMARK   12  A    between atoms: _34  and  _35
REMARK   13  A    between atoms: _37  and  _39
REMARK   14  A    between atoms: _39  and  _40
REMARK   15  A    between atoms: _39  and  _42
REMARK   16  A    between atoms: _42  and  _43
REMARK   17  A    between atoms: _45  and  _47
REMARK   18  A    between atoms: _47  and  _48
REMARK   19  A    between atoms: _47  and  _50
REMARK   20  A    between atoms: _53  and  _55
REMARK   21  A    between atoms: _55  and  _56
REMARK   22  A    between atoms: _58  and  _60
REMARK   23  A    between atoms: _60  and  _61
REMARK   24  A    between atoms: _60  and  _63
REMARK   25  A    between atoms: _63  and  _64
REMARK   26  A    between atoms: _74  and  _76
REMARK   27  A    between atoms: _76  and  _77
REMARK   28  A    between atoms: _76  and  _79
REMARK   29  A    between atoms: _79  and  _80
REMARK   30  A    between atoms: _83  and  _85
REMARK   31  A    between atoms: _85  and  _86
REMARK   32  A    between atoms: _85  and  _88
REMARK   33  A    between atoms: _88  and  _89
REMARK   34  A    between atoms: _92  and  _94
REMARK   35  A    between atoms: _94  and  _95
REMARK   36  A    between atoms: _94  and  _97
REMARK   37  A    between atoms: _97  and  _98
REMARK   38  A    between atoms: _98  and  _99
REMARK   39  A    between atoms: _102  and  _104
REMARK   40  A    between atoms: _104  and  _105
REMARK   41  A    between atoms: _104  and  _107
REMARK   42  A    between atoms: _107  and  _108
REMARK   43  A    between atoms: _114  and  _116
REMARK   44  A    between atoms: _116  and  _117
REMARK   45  A    between atoms: _119  and  _121
REMARK   46  A    between atoms: _121  and  _122
REMARK   47  A    between atoms: _124  and  _126
REMARK   48  A    between atoms: _126  and  _127
REMARK   49  A    between atoms: _130  and  _132
REMARK   50  A    between atoms: _132  and  _133
REMARK   51  A    between atoms: _132  and  _135
REMARK   52  A    between atoms: _135  and  _136
REMARK   53  A    between atoms: _136  and  _137
REMARK   54  A    between atoms: _137  and  _138
REMARK   55  A    between atoms: _138  and  _139
REMARK   56  A    between atoms: _143  and  _145
REMARK   57  A    between atoms: _145  and  _146
REMARK   58  A    between atoms: _145  and  _148
REMARK   59  A    between atoms: _148  and  _149
REMARK   60  A    between atoms: _149  and  _150
REMARK   61  A    between atoms: _152  and  _154
REMARK   62  A    between atoms: _154  and  _155
REMARK   63  A    between atoms: _154  and  _157
REMARK   64  A    between atoms: _157  and  _158
REMARK   65  A    between atoms: _163  and  _164
REMARK   66  A    between atoms: _166  and  _168
REMARK   67  A    between atoms: _168  and  _169
REMARK   68  A    between atoms: _168  and  _171
REMARK   69  A    between atoms: _171  and  _172
REMARK   70  A    between atoms: _175  and  _177
REMARK   71  A    between atoms: _177  and  _178
REMARK   72  A    between atoms: _177  and  _180
REMARK   73  A    between atoms: _180  and  _181
REMARK   74  A    between atoms: _187  and  _189
REMARK   75  A    between atoms: _189  and  _190
REMARK   76  A    between atoms: _189  and  _192
REMARK   77  A    between atoms: _192  and  _193
REMARK   78  A    between atoms: _198  and  _199
REMARK   79  A    between atoms: _201  and  _203
REMARK   80  A    between atoms: _203  and  _204
REMARK   81  A    between atoms: _206  and  _208
REMARK   82  A    between atoms: _208  and  _209
REMARK   83  A    between atoms: _211  and  _213
REMARK   84  A    between atoms: _213  and  _214
REMARK   85  A    between atoms: _213  and  _216
REMARK   86  A    between atoms: _216  and  _217
REMARK   87  A    between atoms: _227  and  _229
REMARK   88  A    between atoms: _229  and  _230
REMARK   89  A    between atoms: _229  and  _232
REMARK   90  A    between atoms: _232  and  _233
REMARK   91  A    between atoms: _238  and  _240
REMARK   92  A    between atoms: _240  and  _241
REMARK   93  A    between atoms: _240  and  _243
REMARK   94  A    between atoms: _243  and  _244
REMARK   95  A    between atoms: _249  and  _250
REMARK   96  A    between atoms: _252  and  _254
REMARK   97  A    between atoms: _254  and  _255
REMARK   98  A    between atoms: _254  and  _257
REMARK   99  A    between atoms: _257  and  _258
REMARK  100  A    between atoms: _263  and  _264
REMARK  101  A    between atoms: _266  and  _268
REMARK  102  A    between atoms: _268  and  _269
REMARK  103  A    between atoms: _268  and  _271
REMARK  104  A    between atoms: _271  and  _272
REMARK  105  A    between atoms: _272  and  _273
REMARK  106  A    between atoms: _273  and  _274
REMARK  107  A    between atoms: _283  and  _285
REMARK  108  A    between atoms: _285  and  _286
REMARK  109  A    between atoms: _285  and  _288
REMARK  110  A    between atoms: _288  and  _289
REMARK  111  A    between atoms: _289  and  _290
REMARK  112  A    between atoms: _290  and  _291
REMARK  113  A    between atoms: _291  and  _292
REMARK  114  A    between atoms: _296  and  _298
REMARK  115  A    between atoms: _298  and  _299
REMARK  116  A    between atoms: _298  and  _301
REMARK  117  A    between atoms: _301  and  _302
REMARK  118  A    between atoms: _302  and  _303
REMARK  119  A    between atoms: _306  and  _308
REMARK  120  A    between atoms: _308  and  _309
REMARK  121  A    between atoms: _308  and  _311
REMARK  122  A    between atoms: _314  and  _316
REMARK  123  A    between atoms: _316  and  _317
REMARK  124  A    between atoms: _316  and  _319
REMARK  125  A    between atoms: _319  and  _320
REMARK  126  A    between atoms: _330  and  _332
REMARK  127  A    between atoms: _332  and  _333
REMARK  128  A    between atoms: _332  and  _335
REMARK  129  A    between atoms: _335  and  _336
REMARK  130  A    between atoms: _336  and  _337
REMARK                            x       y       z     vdW  Elec       q    Type
REMARK                         _______ _______ _______ _____ _____    ______ ____
ROOT
ATOM      1  C   TRP A   2      12.276 -12.991  27.245  0.00  0.00    +0.241 C 
ATOM      2  N   THR A   3      11.670 -12.237  28.141  0.00  0.00    -0.295 N 
ATOM      3  H   THR A   3      10.889 -11.612  27.857  0.00  0.00    +0.150 HD
ATOM      4  O   TRP A   2      13.139 -13.782  27.522  0.00  0.00    -0.273 OA
ENDROOT
BRANCH   1   5
ATOM      5  CA  TRP A   2      11.903 -12.765  25.774  0.00  0.00    +0.153 C 
BRANCH   5   8
ATOM      6  C   GLY A   1       9.653 -13.658  25.917  0.00  0.00    +0.240 C 
ATOM      7  O   GLY A   1      10.131 -14.620  26.561  0.00  0.00    -0.274 OA
ATOM      8  N   TRP A   2      10.454 -12.681  25.545  0.00  0.00    -0.297 N 
ATOM      9  H   TRP A   2      10.056 -11.839  25.083  0.00  0.00    +0.150 HD
BRANCH   6  10
ATOM     10  CA  GLY A   1       8.226 -13.496  25.568  0.00  0.00    +0.169 C 
BRANCH  10  11
ATOM     11  N   GLY A   1       7.386 -14.642  25.970  0.00  0.00    -0.236 NA
ATOM     12  H   GLY A   1       7.221 -15.443  25.327  0.00  0.00    +0.142 HD
ENDBRANCH  10  11
ENDBRANCH   6  10
ENDBRANCH   5   8
BRANCH   5  13
ATOM     13  CB  TRP A   2      12.561 -11.416  25.303  0.00  0.00    +0.057 C 
BRANCH  13  14
ATOM     14  CG  TRP A   2      14.046 -11.351  25.498  0.00  0.00    -0.002 A 
ATOM     15  CD1 TRP A   2      14.694 -10.734  26.498  0.00  0.00    +0.068 A 
ATOM     16  NE1 TRP A   2      16.062 -10.893  26.354  0.00  0.00    -0.352 N 
ATOM     17  HE1 TRP A   2      16.796 -10.551  27.007  0.00  0.00    +0.166 HD
ATOM     18  CE2 TRP A   2      16.266 -11.582  25.195  0.00  0.00    +0.056 A 
ATOM     19  CZ2 TRP A   2      17.446 -11.983  24.598  0.00  0.00    +0.017 A 
ATOM     20  CH2 TRP A   2      17.326 -12.646  23.389  0.00  0.00    +0.001 A 
ATOM     21  CZ3 TRP A   2      16.075 -12.916  22.800  0.00  0.00    +0.000 A 
ATOM     22  CE3 TRP A   2      14.907 -12.546  23.425  0.00  0.00    +0.001 A 
ATOM     23  CD2 TRP A   2      14.996 -11.868  24.636  0.00  0.00    +0.013 A 
ENDBRANCH  13  14
ENDBRANCH   5  13
ENDBRANCH   1   5
BRANCH   2  24
ATOM     24  CA  THR A   3      12.110 -12.286  29.561  0.00  0.00    +0.176 C 
BRANCH  24  25
ATOM     25  C   THR A   3      11.447 -13.418  30.398  0.00  0.00    +0.243 C 
ATOM     26  O   THR A   3      11.995 -13.770  31.450  0.00  0.00    -0.273 OA
ATOM     27  N   LEU A   4      10.359 -13.980  29.866  0.00  0.00    -0.298 N 
ATOM     28  H   LEU A   4      10.134 -13.791  28.868  0.00  0.00    +0.150 HD
BRANCH  27  29
ATOM     29  CA  LEU A   4       9.449 -14.875  30.655  0.00  0.00    +0.137 C 
BRANCH  29  30
ATOM     30  C   LEU A   4       9.446 -16.296  30.034  0.00  0.00    +0.227 C 
ATOM     31  O   LEU A   4       8.560 -17.098  30.323  0.00  0.00    -0.286 OA
ENDBRANCH  29  30
BRANCH  29  32
ATOM     32  CB  LEU A   4       8.012 -14.284  30.782  0.00  0.00    +0.028 C 
BRANCH  32  33
ATOM     33  CG  LEU A   4       7.984 -13.049  31.692  0.00  0.00    +0.002 C 
ATOM     34  CD2 LEU A   4       8.184 -13.519  33.181  0.00  0.00    +0.000 C 
ATOM     35  CD1 LEU A   4       6.537 -12.469  31.494  0.00  0.00    +0.000 C 
ENDBRANCH  32  33
ENDBRANCH  29  32
ENDBRANCH  27  29
ENDBRANCH  24  25
BRANCH  24  36
ATOM     36  CB  THR A   3      11.840 -10.927  30.284  0.00  0.00    +0.137 C 
ATOM     37  CG2 THR A   3      12.467  -9.848  29.405  0.00  0.00    +0.034 C 
BRANCH  36  38
ATOM     38  OG1 THR A   3      10.495 -10.684  30.369  0.00  0.00    -0.382 OA
ATOM     39  HG1 THR A   3      10.110 -10.645  29.458  0.00  0.00    +0.210 HD
ENDBRANCH  36  38
ENDBRANCH  24  36
ENDBRANCH   2  24
TORSDOF 14
REMARK  Name = ../refined-set-2016/3arw/3arw_pocket.pdb
REMARK  130 active torsions:
REMARK  status: ('A' for Active; 'I' for Inactive)
REMARK    1  A    between atoms: _1  and  _3
REMARK    2  A    between atoms: _3  and  _4
REMARK    3  A    between atoms: _3  and  _6
REMARK    4  A    between atoms: _6  and  _7
REMARK    5  A    between atoms: _17  and  _19
REMARK    6  A    between atoms: _19  and  _20
REMARK    7  A    between atoms: _19  and  _22
REMARK    8  A    between atoms: _22  and  _23
REMARK    9  A    between atoms: _29  and  _31
REMARK   10  A    between atoms: _31  and  _32
REMARK   11  A    between atoms: _31  and  _34
REMARK   12  A    between atoms: _34  and  _35
REMARK   13  A    between atoms: _37  and  _39
REMARK   14  A    between atoms: _39  and  _40
REMARK   15  A    between atoms: _39  and  _42
REMARK   16  A    between atoms: _42  and  _43
REMARK   17  A    between atoms: _45  and  _47
REMARK   18  A    between atoms: _47  and  _48
REMARK   19  A    between atoms: _47  and  _50
REMARK   20  A    between atoms: _53  and  _55
REMARK   21  A    between atoms: _55  and  _56
REMARK   22  A    between atoms: _58  and  _60
REMARK   23  A    between atoms: _60  and  _61
REMARK   24  A    between atoms: _60  and  _63
REMARK   25  A    between atoms: _63  and  _64
REMARK   26  A    between atoms: _74  and  _76
REMARK   27  A    between atoms: _76  and  _77
REMARK   28  A    between atoms: _76  and  _79
REMARK   29  A    between atoms: _79  and  _80
REMARK   30  A    between atoms: _83  and  _85
REMARK   31  A    between atoms: _85  and  _86
REMARK   32  A    between atoms: _85  and  _88
REMARK   33  A    between atoms: _88  and  _89
REMARK   34  A    between atoms: _92  and  _94
REMARK   35  A    between atoms: _94  and  _95
REMARK   36  A    between atoms: _94  and  _97
REMARK   37  A    between atoms: _97  and  _98
REMARK   38  A    between atoms: _98  and  _99
REMARK   39  A    between atoms: _102  and  _104
REMARK   40  A    between atoms: _104  and  _105
REMARK   41  A    between atoms: _104  and  _107
REMARK   42  A    between atoms: _107  and  _108
REMARK   43  A    between atoms: _114  and  _116
REMARK   44  A    between atoms: _116  and  _117
REMARK   45  A    between atoms: _119  and  _121
REMARK   46  A    between atoms: _121  and  _122
REMARK   47  A    between atoms: _124  and  _126
REMARK   48  A    between atoms: _126  and  _127
REMARK   49  A    between atoms: _130  and  _132
REMARK   50  A    between atoms: _132  and  _133
REMARK   51  A    between atoms: _132  and  _135
REMARK   52  A    between atoms: _135  and  _136
REMARK   53  A    between atoms: _136  and  _137
REMARK   54  A    between atoms: _137  and  _138
REMARK   55  A    between atoms: _138  and  _139
REMARK   56  A    between atoms: _143  and  _145
REMARK   57  A    between atoms: _145  and  _146
REMARK   58  A    between atoms: _145  and  _148
REMARK   59  A    between atoms: _148  and  _149
REMARK   60  A    between atoms: _149  and  _150
REMARK   61  A    between atoms: _152  and  _154
REMARK   62  A    between atoms: _154  and  _155
REMARK   63  A    between atoms: _154  and  _157
REMARK   64  A    between atoms: _157  and  _158
REMARK   65  A    between atoms: _163  and  _164
REMARK   66  A    between atoms: _166  and  _168
REMARK   67  A    between atoms: _168  and  _169
REMARK   68  A    between atoms: _168  and  _171
REMARK   69  A    between atoms: _171  and  _172
REMARK   70  A    between atoms: _175  and  _177
REMARK   71  A    between atoms: _177  and  _178
REMARK   72  A    between atoms: _177  and  _180
REMARK   73  A    between atoms: _180  and  _181
REMARK   74  A    between atoms: _187  and  _189
REMARK   75  A    between atoms: _189  and  _190
REMARK   76  A    between atoms: _189  and  _192
REMARK   77  A    between atoms: _192  and  _193
REMARK   78  A    between atoms: _198  and  _199
REMARK   79  A    between atoms: _201  and  _203
REMARK   80  A    between atoms: _203  and  _204
REMARK   81  A    between atoms: _206  and  _208
REMARK   82  A    between atoms: _208  and  _209
REMARK   83  A    between atoms: _211  and  _213
REMARK   84  A    between atoms: _213  and  _214
REMARK   85  A    between atoms: _213  and  _216
REMARK   86  A    between atoms: _216  and  _217
REMARK   87  A    between atoms: _227  and  _229
REMARK   88  A    between atoms: _229  and  _230
REMARK   89  A    between atoms: _229  and  _232
REMARK   90  A    between atoms: _232  and  _233
REMARK   91  A    between atoms: _238  and  _240
REMARK   92  A    between atoms: _240  and  _241
REMARK   93  A    between atoms: _240  and  _243
REMARK   94  A    between atoms: _243  and  _244
REMARK   95  A    between atoms: _249  and  _250
REMARK   96  A    between atoms: _252  and  _254
REMARK   97  A    between atoms: _254  and  _255
REMARK   98  A    between atoms: _254  and  _257
REMARK   99  A    between atoms: _257  and  _258
REMARK  100  A    between atoms: _263  and  _264
REMARK  101  A    between atoms: _266  and  _268
REMARK  102  A    between atoms: _268  and  _269
REMARK  103  A    between atoms: _268  and  _271
REMARK  104  A    between atoms: _271  and  _272
REMARK  105  A    between atoms: _272  and  _273
REMARK  106  A    between atoms: _273  and  _274
REMARK  107  A    between atoms: _283  and  _285
REMARK  108  A    between atoms: _285  and  _286
REMARK  109  A    between atoms: _285  and  _288
REMARK  110  A    between atoms: _288  and  _289
REMARK  111  A    between atoms: _289  and  _290
REMARK  112  A    between atoms: _290  and  _291
REMARK  113  A    between atoms: _291  and  _292
REMARK  114  A    between atoms: _296  and  _298
REMARK  115  A    between atoms: _298  and  _299
REMARK  116  A    between atoms: _298  and  _301
REMARK  117  A    between atoms: _301  and  _302
REMARK  118  A    between atoms: _302  and  _303
REMARK  119  A    between atoms: _306  and  _308
REMARK  120  A    between atoms: _308  and  _309
REMARK  121  A    between atoms: _308  and  _311
REMARK  122  A    between atoms: _314  and  _316
REMARK  123  A    between atoms: _316  and  _317
REMARK  124  A    between atoms: _316  and  _319
REMARK  125  A    between atoms: _319  and  _320
REMARK  126  A    between atoms: _330  and  _332
REMARK  127  A    between atoms: _332  and  _333
REMARK  128  A    between atoms: _332  and  _335
REMARK  129  A    between atoms: _335  and  _336
REMARK  130  A    between atoms: _336  and  _337
REMARK                            x       y       z     vdW  Elec       q    Type
REMARK                         _______ _______ _______ _____ _____    ______ ____
ROOT
ATOM      1  C   GLU A   1      13.089 -18.214  23.571  0.00  0.00    +0.238 C 
ATOM      2  O   GLU A   1      13.571 -17.729  24.661  0.00  0.00    -0.274 OA
ATOM      3  N   PHE A   2      13.625 -19.359  23.080  0.00  0.00    -0.298 N 
ATOM      4  H   PHE A   2      14.385 -19.812  23.626  0.00  0.00    +0.150 HD
ENDROOT
BRANCH   1   5
ATOM      5  CA  GLU A   1      11.869 -17.573  22.903  0.00  0.00    +0.145 C 
BRANCH   5   6
ATOM      6  N   GLU A   1      10.668 -18.116  23.584  0.00  0.00    -0.238 NA
ATOM      7  H   GLU A   1      10.487 -17.897  24.585  0.00  0.00    +0.142 HD
ENDBRANCH   5   6
BRANCH   5   8
ATOM      8  CB  GLU A   1      11.888 -16.051  23.057  0.00  0.00    +0.038 C 
BRANCH   8   9
ATOM      9  CG  GLU A   1      10.659 -15.489  22.448  0.00  0.00    +0.116 C 
BRANCH   9  10
ATOM     10  CD  GLU A   1      10.641 -13.935  22.303  0.00  0.00    +0.365 C 
ATOM     11  OE2 GLU A   1      11.642 -13.280  22.335  0.00  0.00    -0.246 OA
ATOM     12  OE1 GLU A   1       9.497 -13.464  22.192  0.00  0.00    -0.246 OA
ENDBRANCH   9  10
ENDBRANCH   8   9
ENDBRANCH   5   8
ENDBRANCH   1   5
BRANCH   3  13
ATOM     13  CA  PHE A   2      13.206 -19.998  21.836  0.00  0.00    +0.141 C 
BRANCH  13  14
ATOM     14  C   PHE A   2      13.488 -21.512  22.041  0.00  0.00    +0.227 C 
ATOM     15  O   PHE A   2      14.455 -21.817  22.772  0.00  0.00    -0.286 OA
ENDBRANCH  13  14
BRANCH  13  16
ATOM     16  CB  PHE A   2      14.095 -19.559  20.656  0.00  0.00    +0.054 C 
BRANCH  16  17
ATOM     17  CG  PHE A   2      14.067 -18.065  20.358  0.00  0.00    -0.020 A 
ATOM     18  CD2 PHE A   2      15.082 -17.274  20.905  0.00  0.00    -0.004 A 
ATOM     19  CE2 PHE A   2      15.001 -15.850  20.615  0.00  0.00    -0.000 A 
ATOM     20  CZ  PHE A   2      13.928 -15.355  19.793  0.00  0.00    -0.000 A 
ATOM     21  CE1 PHE A   2      12.952 -16.183  19.285  0.00  0.00    -0.000 A 
ATOM     22  CD1 PHE A   2      13.071 -17.576  19.542  0.00  0.00    -0.004 A 
ENDBRANCH  16  17
ENDBRANCH  13  16
ENDBRANCH   3  13
TORSDOF 9
REMARK  Name = ../refined-set-2016/3arw/3arw_pocket.pdb
REMARK  130 active torsions:
REMARK  status: ('A' for Active; 'I' for Inactive)
REMARK    1  A    between atoms: _1  and  _3
REMARK    2  A    between atoms: _3  and  _4
REMARK    3  A    between atoms: _3  and  _6
REMARK    4  A    between atoms: _6  and  _7
REMARK    5  A    between atoms: _17  and  _19
REMARK    6  A    between atoms: _19  and  _20
REMARK    7  A    between atoms: _19  and  _22
REMARK    8  A    between atoms: _22  and  _23
REMARK    9  A    between atoms: _29  and  _31
REMARK   10  A    between atoms: _31  and  _32
REMARK   11  A    between atoms: _31  and  _34
REMARK   12  A    between atoms: _34  and  _35
REMARK   13  A    between atoms: _37  and  _39
REMARK   14  A    between atoms: _39  and  _40
REMARK   15  A    between atoms: _39  and  _42
REMARK   16  A    between atoms: _42  and  _43
REMARK   17  A    between atoms: _45  and  _47
REMARK   18  A    between atoms: _47  and  _48
REMARK   19  A    between atoms: _47  and  _50
REMARK   20  A    between atoms: _53  and  _55
REMARK   21  A    between atoms: _55  and  _56
REMARK   22  A    between atoms: _58  and  _60
REMARK   23  A    between atoms: _60  and  _61
REMARK   24  A    between atoms: _60  and  _63
REMARK   25  A    between atoms: _63  and  _64
REMARK   26  A    between atoms: _74  and  _76
REMARK   27  A    between atoms: _76  and  _77
REMARK   28  A    between atoms: _76  and  _79
REMARK   29  A    between atoms: _79  and  _80
REMARK   30  A    between atoms: _83  and  _85
REMARK   31  A    between atoms: _85  and  _86
REMARK   32  A    between atoms: _85  and  _88
REMARK   33  A    between atoms: _88  and  _89
REMARK   34  A    between atoms: _92  and  _94
REMARK   35  A    between atoms: _94  and  _95
REMARK   36  A    between atoms: _94  and  _97
REMARK   37  A    between atoms: _97  and  _98
REMARK   38  A    between atoms: _98  and  _99
REMARK   39  A    between atoms: _102  and  _104
REMARK   40  A    between atoms: _104  and  _105
REMARK   41  A    between atoms: _104  and  _107
REMARK   42  A    between atoms: _107  and  _108
REMARK   43  A    between atoms: _114  and  _116
REMARK   44  A    between atoms: _116  and  _117
REMARK   45  A    between atoms: _119  and  _121
REMARK   46  A    between atoms: _121  and  _122
REMARK   47  A    between atoms: _124  and  _126
REMARK   48  A    between atoms: _126  and  _127
REMARK   49  A    between atoms: _130  and  _132
REMARK   50  A    between atoms: _132  and  _133
REMARK   51  A    between atoms: _132  and  _135
REMARK   52  A    between atoms: _135  and  _136
REMARK   53  A    between atoms: _136  and  _137
REMARK   54  A    between atoms: _137  and  _138
REMARK   55  A    between atoms: _138  and  _139
REMARK   56  A    between atoms: _143  and  _145
REMARK   57  A    between atoms: _145  and  _146
REMARK   58  A    between atoms: _145  and  _148
REMARK   59  A    between atoms: _148  and  _149
REMARK   60  A    between atoms: _149  and  _150
REMARK   61  A    between atoms: _152  and  _154
REMARK   62  A    between atoms: _154  and  _155
REMARK   63  A    between atoms: _154  and  _157
REMARK   64  A    between atoms: _157  and  _158
REMARK   65  A    between atoms: _163  and  _164
REMARK   66  A    between atoms: _166  and  _168
REMARK   67  A    between atoms: _168  and  _169
REMARK   68  A    between atoms: _168  and  _171
REMARK   69  A    between atoms: _171  and  _172
REMARK   70  A    between atoms: _175  and  _177
REMARK   71  A    between atoms: _177  and  _178
REMARK   72  A    between atoms: _177  and  _180
REMARK   73  A    between atoms: _180  and  _181
REMARK   74  A    between atoms: _187  and  _189
REMARK   75  A    between atoms: _189  and  _190
REMARK   76  A    between atoms: _189  and  _192
REMARK   77  A    between atoms: _192  and  _193
REMARK   78  A    between atoms: _198  and  _199
REMARK   79  A    between atoms: _201  and  _203
REMARK   80  A    between atoms: _203  and  _204
REMARK   81  A    between atoms: _206  and  _208
REMARK   82  A    between atoms: _208  and  _209
REMARK   83  A    between atoms: _211  and  _213
REMARK   84  A    between atoms: _213  and  _214
REMARK   85  A    between atoms: _213  and  _216
REMARK   86  A    between atoms: _216  and  _217
REMARK   87  A    between atoms: _227  and  _229
REMARK   88  A    between atoms: _229  and  _230
REMARK   89  A    between atoms: _229  and  _232
REMARK   90  A    between atoms: _232  and  _233
REMARK   91  A    between atoms: _238  and  _240
REMARK   92  A    between atoms: _240  and  _241
REMARK   93  A    between atoms: _240  and  _243
REMARK   94  A    between atoms: _243  and  _244
REMARK   95  A    between atoms: _249  and  _250
REMARK   96  A    between atoms: _252  and  _254
REMARK   97  A    between atoms: _254  and  _255
REMARK   98  A    between atoms: _254  and  _257
REMARK   99  A    between atoms: _257  and  _258
REMARK  100  A    between atoms: _263  and  _264
REMARK  101  A    between atoms: _266  and  _268
REMARK  102  A    between atoms: _268  and  _269
REMARK  103  A    between atoms: _268  and  _271
REMARK  104  A    between atoms: _271  and  _272
REMARK  105  A    between atoms: _272  and  _273
REMARK  106  A    between atoms: _273  and  _274
REMARK  107  A    between atoms: _283  and  _285
REMARK  108  A    between atoms: _285  and  _286
REMARK  109  A    between atoms: _285  and  _288
REMARK  110  A    between atoms: _288  and  _289
REMARK  111  A    between atoms: _289  and  _290
REMARK  112  A    between atoms: _290  and  _291
REMARK  113  A    between atoms: _291  and  _292
REMARK  114  A    between atoms: _296  and  _298
REMARK  115  A    between atoms: _298  and  _299
REMARK  116  A    between atoms: _298  and  _301
REMARK  117  A    between atoms: _301  and  _302
REMARK  118  A    between atoms: _302  and  _303
REMARK  119  A    between atoms: _306  and  _308
REMARK  120  A    between atoms: _308  and  _309
REMARK  121  A    between atoms: _308  and  _311
REMARK  122  A    between atoms: _314  and  _316
REMARK  123  A    between atoms: _316  and  _317
REMARK  124  A    between atoms: _316  and  _319
REMARK  125  A    between atoms: _319  and  _320
REMARK  126  A    between atoms: _330  and  _332
REMARK  127  A    between atoms: _332  and  _333
REMARK  128  A    between atoms: _332  and  _335
REMARK  129  A    between atoms: _335  and  _336
REMARK  130  A    between atoms: _336  and  _337
REMARK                            x       y       z     vdW  Elec       q    Type
REMARK                         _______ _______ _______ _____ _____    ______ ____
ROOT
ATOM      1  CA  GLY A   2      17.098 -16.383  24.039  0.00  0.00    +0.176 C 
ENDROOT
BRANCH   1   3
ATOM      2  C   GLY A   1      18.608 -17.243  22.349  0.00  0.00    +0.240 C 
ATOM      3  N   GLY A   2      17.909 -17.455  23.446  0.00  0.00    -0.295 N 
ATOM      4  H   GLY A   2      17.932 -18.392  23.897  0.00  0.00    +0.150 HD
ATOM      5  O   GLY A   1      18.566 -16.169  21.687  0.00  0.00    -0.274 OA
BRANCH   2   6
ATOM      6  CA  GLY A   1      19.488 -18.373  21.916  0.00  0.00    +0.169 C 
BRANCH   6   7
ATOM      7  N   GLY A   1      19.197 -19.632  22.561  0.00  0.00    -0.236 NA
ATOM      8  H   GLY A   1      19.760 -19.922  23.386  0.00  0.00    +0.142 HD
ENDBRANCH   6   7
ENDBRANCH   2   6
ENDBRANCH   1   3
BRANCH   1   9
ATOM      9  C   GLY A   2      17.858 -15.710  25.161  0.00  0.00    +0.243 C 
ATOM     10  N   ALA A   3      17.077 -15.230  26.106  0.00  0.00    -0.298 N 
ATOM     11  H   ALA A   3      16.048 -15.362  26.034  0.00  0.00    +0.150 HD
ATOM     12  O   GLY A   2      19.104 -15.684  25.212  0.00  0.00    -0.273 OA
BRANCH  10  13
ATOM     13  CA  ALA A   3      17.633 -14.511  27.262  0.00  0.00    +0.137 C 
ATOM     14  CB  ALA A   3      16.445 -13.848  28.111  0.00  0.00    +0.030 C 
BRANCH  13  15
ATOM     15  C   ALA A   3      18.477 -15.423  28.167  0.00  0.00    +0.227 C 
ATOM     16  O   ALA A   3      19.455 -14.895  28.733  0.00  0.00    -0.286 OA
ENDBRANCH  13  15
ENDBRANCH  10  13
ENDBRANCH   1   9
TORSDOF 6
REMARK  Name = ../refined-set-2016/3arw/3arw_pocket.pdb
REMARK  130 active torsions:
REMARK  status: ('A' for Active; 'I' for Inactive)
REMARK    1  A    between atoms: _1  and  _3
REMARK    2  A    between atoms: _3  and  _4
REMARK    3  A    between atoms: _3  and  _6
REMARK    4  A    between atoms: _6  and  _7
REMARK    5  A    between atoms: _17  and  _19
REMARK    6  A    between atoms: _19  and  _20
REMARK    7  A    between atoms: _19  and  _22
REMARK    8  A    between atoms: _22  and  _23
REMARK    9  A    between atoms: _29  and  _31
REMARK   10  A    between atoms: _31  and  _32
REMARK   11  A    between atoms: _31  and  _34
REMARK   12  A    between atoms: _34  and  _35
REMARK   13  A    between atoms: _37  and  _39
REMARK   14  A    between atoms: _39  and  _40
REMARK   15  A    between atoms: _39  and  _42
REMARK   16  A    between atoms: _42  and  _43
REMARK   17  A    between atoms: _45  and  _47
REMARK   18  A    between atoms: _47  and  _48
REMARK   19  A    between atoms: _47  and  _50
REMARK   20  A    between atoms: _53  and  _55
REMARK   21  A    between atoms: _55  and  _56
REMARK   22  A    between atoms: _58  and  _60
REMARK   23  A    between atoms: _60  and  _61
REMARK   24  A    between atoms: _60  and  _63
REMARK   25  A    between atoms: _63  and  _64
REMARK   26  A    between atoms: _74  and  _76
REMARK   27  A    between atoms: _76  and  _77
REMARK   28  A    between atoms: _76  and  _79
REMARK   29  A    between atoms: _79  and  _80
REMARK   30  A    between atoms: _83  and  _85
REMARK   31  A    between atoms: _85  and  _86
REMARK   32  A    between atoms: _85  and  _88
REMARK   33  A    between atoms: _88  and  _89
REMARK   34  A    between atoms: _92  and  _94
REMARK   35  A    between atoms: _94  and  _95
REMARK   36  A    between atoms: _94  and  _97
REMARK   37  A    between atoms: _97  and  _98
REMARK   38  A    between atoms: _98  and  _99
REMARK   39  A    between atoms: _102  and  _104
REMARK   40  A    between atoms: _104  and  _105
REMARK   41  A    between atoms: _104  and  _107
REMARK   42  A    between atoms: _107  and  _108
REMARK   43  A    between atoms: _114  and  _116
REMARK   44  A    between atoms: _116  and  _117
REMARK   45  A    between atoms: _119  and  _121
REMARK   46  A    between atoms: _121  and  _122
REMARK   47  A    between atoms: _124  and  _126
REMARK   48  A    between atoms: _126  and  _127
REMARK   49  A    between atoms: _130  and  _132
REMARK   50  A    between atoms: _132  and  _133
REMARK   51  A    between atoms: _132  and  _135
REMARK   52  A    between atoms: _135  and  _136
REMARK   53  A    between atoms: _136  and  _137
REMARK   54  A    between atoms: _137  and  _138
REMARK   55  A    between atoms: _138  and  _139
REMARK   56  A    between atoms: _143  and  _145
REMARK   57  A    between atoms: _145  and  _146
REMARK   58  A    between atoms: _145  and  _148
REMARK   59  A    between atoms: _148  and  _149
REMARK   60  A    between atoms: _149  and  _150
REMARK   61  A    between atoms: _152  and  _154
REMARK   62  A    between atoms: _154  and  _155
REMARK   63  A    between atoms: _154  and  _157
REMARK   64  A    between atoms: _157  and  _158
REMARK   65  A    between atoms: _163  and  _164
REMARK   66  A    between atoms: _166  and  _168
REMARK   67  A    between atoms: _168  and  _169
REMARK   68  A    between atoms: _168  and  _171
REMARK   69  A    between atoms: _171  and  _172
REMARK   70  A    between atoms: _175  and  _177
REMARK   71  A    between atoms: _177  and  _178
REMARK   72  A    between atoms: _177  and  _180
REMARK   73  A    between atoms: _180  and  _181
REMARK   74  A    between atoms: _187  and  _189
REMARK   75  A    between atoms: _189  and  _190
REMARK   76  A    between atoms: _189  and  _192
REMARK   77  A    between atoms: _192  and  _193
REMARK   78  A    between atoms: _198  and  _199
REMARK   79  A    between atoms: _201  and  _203
REMARK   80  A    between atoms: _203  and  _204
REMARK   81  A    between atoms: _206  and  _208
REMARK   82  A    between atoms: _208  and  _209
REMARK   83  A    between atoms: _211  and  _213
REMARK   84  A    between atoms: _213  and  _214
REMARK   85  A    between atoms: _213  and  _216
REMARK   86  A    between atoms: _216  and  _217
REMARK   87  A    between atoms: _227  and  _229
REMARK   88  A    between atoms: _229  and  _230
REMARK   89  A    between atoms: _229  and  _232
REMARK   90  A    between atoms: _232  and  _233
REMARK   91  A    between atoms: _238  and  _240
REMARK   92  A    between atoms: _240  and  _241
REMARK   93  A    between atoms: _240  and  _243
REMARK   94  A    between atoms: _243  and  _244
REMARK   95  A    between atoms: _249  and  _250
REMARK   96  A    between atoms: _252  and  _254
REMARK   97  A    between atoms: _254  and  _255
REMARK   98  A    between atoms: _254  and  _257
REMARK   99  A    between atoms: _257  and  _258
REMARK  100  A    between atoms: _263  and  _264
REMARK  101  A    between atoms: _266  and  _268
REMARK  102  A    between atoms: _268  and  _269
REMARK  103  A    between atoms: _268  and  _271
REMARK  104  A    between atoms: _271  and  _272
REMARK  105  A    between atoms: _272  and  _273
REMARK  106  A    between atoms: _273  and  _274
REMARK  107  A    between atoms: _283  and  _285
REMARK  108  A    between atoms: _285  and  _286
REMARK  109  A    between atoms: _285  and  _288
REMARK  110  A    between atoms: _288  and  _289
REMARK  111  A    between atoms: _289  and  _290
REMARK  112  A    between atoms: _290  and  _291
REMARK  113  A    between atoms: _291  and  _292
REMARK  114  A    between atoms: _296  and  _298
REMARK  115  A    between atoms: _298  and  _299
REMARK  116  A    between atoms: _298  and  _301
REMARK  117  A    between atoms: _301  and  _302
REMARK  118  A    between atoms: _302  and  _303
REMARK  119  A    between atoms: _306  and  _308
REMARK  120  A    between atoms: _308  and  _309
REMARK  121  A    between atoms: _308  and  _311
REMARK  122  A    between atoms: _314  and  _316
REMARK  123  A    between atoms: _316  and  _317
REMARK  124  A    between atoms: _316  and  _319
REMARK  125  A    between atoms: _319  and  _320
REMARK  126  A    between atoms: _330  and  _332
REMARK  127  A    between atoms: _332  and  _333
REMARK  128  A    between atoms: _332  and  _335
REMARK  129  A    between atoms: _335  and  _336
REMARK  130  A    between atoms: _336  and  _337
REMARK                            x       y       z     vdW  Elec       q    Type
REMARK                         _______ _______ _______ _____ _____    ______ ____
ROOT
ATOM      1  CG  LYS A   1      15.901 -18.510  16.296  0.00  0.00    -0.000 C 
ENDROOT
BRANCH   1   2
ATOM      2  CB  LYS A   1      15.006 -19.507  15.578  0.00  0.00    +0.025 C 
BRANCH   2   3
ATOM      3  CA  LYS A   1      15.693 -20.876  15.303  0.00  0.00    +0.133 C 
BRANCH   3   4
ATOM      4  N   LYS A   1      16.826 -20.671  14.436  0.00  0.00    -0.239 NA
ATOM      5  H   LYS A   1      16.829 -19.896  13.742  0.00  0.00    +0.142 HD
ENDBRANCH   3   4
BRANCH   3   6
ATOM      6  C   LYS A   1      14.715 -21.822  14.647  0.00  0.00    +0.224 C 
ATOM      7  O   LYS A   1      14.206 -22.771  15.288  0.00  0.00    -0.287 OA
ENDBRANCH   3   6
ENDBRANCH   2   3
ENDBRANCH   1   2
BRANCH   1   8
ATOM      8  CD  LYS A   1      16.507 -19.083  17.536  0.00  0.00    -0.024 C 
BRANCH   8   9
ATOM      9  CE  LYS A   1      17.278 -18.011  18.434  0.00  0.00    -0.086 C 
BRANCH   9  10
ATOM     10  NZ  LYS A   1      18.421 -17.430  17.621  0.00  0.00    +0.380 N 
ATOM     11  HZ1 LYS A   1      18.932 -16.729  18.195  0.00  0.00    -0.089 HD
ATOM     12  HZ2 LYS A   1      19.071 -18.193  17.344  0.00  0.00    -0.089 HD
ATOM     13  HZ3 LYS A   1      18.040 -16.971  16.769  0.00  0.00    -0.089 HD
ENDBRANCH   9  10
ENDBRANCH   8   9
ENDBRANCH   1   8
TORSDOF 7
REMARK  Name = ../refined-set-2016/3arw/3arw_pocket.pdb
REMARK  130 active torsions:
REMARK  status: ('A' for Active; 'I' for Inactive)
REMARK    1  A    between atoms: _1  and  _3
REMARK    2  A    between atoms: _3  and  _4
REMARK    3  A    between atoms: _3  and  _6
REMARK    4  A    between atoms: _6  and  _7
REMARK    5  A    between atoms: _17  and  _19
REMARK    6  A    between atoms: _19  and  _20
REMARK    7  A    between atoms: _19  and  _22
REMARK    8  A    between atoms: _22  and  _23
REMARK    9  A    between atoms: _29  and  _31
REMARK   10  A    between atoms: _31  and  _32
REMARK   11  A    between atoms: _31  and  _34
REMARK   12  A    between atoms: _34  and  _35
REMARK   13  A    between atoms: _37  and  _39
REMARK   14  A    between atoms: _39  and  _40
REMARK   15  A    between atoms: _39  and  _42
REMARK   16  A    between atoms: _42  and  _43
REMARK   17  A    between atoms: _45  and  _47
REMARK   18  A    between atoms: _47  and  _48
REMARK   19  A    between atoms: _47  and  _50
REMARK   20  A    between atoms: _53  and  _55
REMARK   21  A    between atoms: _55  and  _56
REMARK   22  A    between atoms: _58  and  _60
REMARK   23  A    between atoms: _60  and  _61
REMARK   24  A    between atoms: _60  and  _63
REMARK   25  A    between atoms: _63  and  _64
REMARK   26  A    between atoms: _74  and  _76
REMARK   27  A    between atoms: _76  and  _77
REMARK   28  A    between atoms: _76  and  _79
REMARK   29  A    between atoms: _79  and  _80
REMARK   30  A    between atoms: _83  and  _85
REMARK   31  A    between atoms: _85  and  _86
REMARK   32  A    between atoms: _85  and  _88
REMARK   33  A    between atoms: _88  and  _89
REMARK   34  A    between atoms: _92  and  _94
REMARK   35  A    between atoms: _94  and  _95
REMARK   36  A    between atoms: _94  and  _97
REMARK   37  A    between atoms: _97  and  _98
REMARK   38  A    between atoms: _98  and  _99
REMARK   39  A    between atoms: _102  and  _104
REMARK   40  A    between atoms: _104  and  _105
REMARK   41  A    between atoms: _104  and  _107
REMARK   42  A    between atoms: _107  and  _108
REMARK   43  A    between atoms: _114  and  _116
REMARK   44  A    between atoms: _116  and  _117
REMARK   45  A    between atoms: _119  and  _121
REMARK   46  A    between atoms: _121  and  _122
REMARK   47  A    between atoms: _124  and  _126
REMARK   48  A    between atoms: _126  and  _127
REMARK   49  A    between atoms: _130  and  _132
REMARK   50  A    between atoms: _132  and  _133
REMARK   51  A    between atoms: _132  and  _135
REMARK   52  A    between atoms: _135  and  _136
REMARK   53  A    between atoms: _136  and  _137
REMARK   54  A    between atoms: _137  and  _138
REMARK   55  A    between atoms: _138  and  _139
REMARK   56  A    between atoms: _143  and  _145
REMARK   57  A    between atoms: _145  and  _146
REMARK   58  A    between atoms: _145  and  _148
REMARK   59  A    between atoms: _148  and  _149
REMARK   60  A    between atoms: _149  and  _150
REMARK   61  A    between atoms: _152  and  _154
REMARK   62  A    between atoms: _154  and  _155
REMARK   63  A    between atoms: _154  and  _157
REMARK   64  A    between atoms: _157  and  _158
REMARK   65  A    between atoms: _163  and  _164
REMARK   66  A    between atoms: _166  and  _168
REMARK   67  A    between atoms: _168  and  _169
REMARK   68  A    between atoms: _168  and  _171
REMARK   69  A    between atoms: _171  and  _172
REMARK   70  A    between atoms: _175  and  _177
REMARK   71  A    between atoms: _177  and  _178
REMARK   72  A    between atoms: _177  and  _180
REMARK   73  A    between atoms: _180  and  _181
REMARK   74  A    between atoms: _187  and  _189
REMARK   75  A    between atoms: _189  and  _190
REMARK   76  A    between atoms: _189  and  _192
REMARK   77  A    between atoms: _192  and  _193
REMARK   78  A    between atoms: _198  and  _199
REMARK   79  A    between atoms: _201  and  _203
REMARK   80  A    between atoms: _203  and  _204
REMARK   81  A    between atoms: _206  and  _208
REMARK   82  A    between atoms: _208  and  _209
REMARK   83  A    between atoms: _211  and  _213
REMARK   84  A    between atoms: _213  and  _214
REMARK   85  A    between atoms: _213  and  _216
REMARK   86  A    between atoms: _216  and  _217
REMARK   87  A    between atoms: _227  and  _229
REMARK   88  A    between atoms: _229  and  _230
REMARK   89  A    between atoms: _229  and  _232
REMARK   90  A    between atoms: _232  and  _233
REMARK   91  A    between atoms: _238  and  _240
REMARK   92  A    between atoms: _240  and  _241
REMARK   93  A    between atoms: _240  and  _243
REMARK   94  A    between atoms: _243  and  _244
REMARK   95  A    between atoms: _249  and  _250
REMARK   96  A    between atoms: _252  and  _254
REMARK   97  A    between atoms: _254  and  _255
REMARK   98  A    between atoms: _254  and  _257
REMARK   99  A    between atoms: _257  and  _258
REMARK  100  A    between atoms: _263  and  _264
REMARK  101  A    between atoms: _266  and  _268
REMARK  102  A    between atoms: _268  and  _269
REMARK  103  A    between atoms: _268  and  _271
REMARK  104  A    between atoms: _271  and  _272
REMARK  105  A    between atoms: _272  and  _273
REMARK  106  A    between atoms: _273  and  _274
REMARK  107  A    between atoms: _283  and  _285
REMARK  108  A    between atoms: _285  and  _286
REMARK  109  A    between atoms: _285  and  _288
REMARK  110  A    between atoms: _288  and  _289
REMARK  111  A    between atoms: _289  and  _290
REMARK  112  A    between atoms: _290  and  _291
REMARK  113  A    between atoms: _291  and  _292
REMARK  114  A    between atoms: _296  and  _298
REMARK  115  A    between atoms: _298  and  _299
REMARK  116  A    between atoms: _298  and  _301
REMARK  117  A    between atoms: _301  and  _302
REMARK  118  A    between atoms: _302  and  _303
REMARK  119  A    between atoms: _306  and  _308
REMARK  120  A    between atoms: _308  and  _309
REMARK  121  A    between atoms: _308  and  _311
REMARK  122  A    between atoms: _314  and  _316
REMARK  123  A    between atoms: _316  and  _317
REMARK  124  A    between atoms: _316  and  _319
REMARK  125  A    between atoms: _319  and  _320
REMARK  126  A    between atoms: _330  and  _332
REMARK  127  A    between atoms: _332  and  _333
REMARK  128  A    between atoms: _332  and  _335
REMARK  129  A    between atoms: _335  and  _336
REMARK  130  A    between atoms: _336  and  _337
REMARK                            x       y       z     vdW  Elec       q    Type
REMARK                         _______ _______ _______ _____ _____    ______ ____
ROOT
ATOM      1  CA  MET A   1       8.990 -12.321  14.492  0.00  0.00    +0.134 C 
ENDROOT
BRANCH   1   2
ATOM      2  N   MET A   1       8.313 -13.521  13.885  0.00  0.00    -0.239 NA
ATOM      3  H   MET A   1       8.601 -14.474  14.185  0.00  0.00    +0.142 HD
ENDBRANCH   1   2
BRANCH   1   4
ATOM      4  C   MET A   1      10.031 -11.797  13.507  0.00  0.00    +0.224 C 
ATOM      5  O   MET A   1      11.239 -11.976  13.703  0.00  0.00    -0.287 OA
ENDBRANCH   1   4
BRANCH   1   6
ATOM      6  CB  MET A   1       9.685 -12.721  15.759  0.00  0.00    +0.037 C 
BRANCH   6   7
ATOM      7  CG  MET A   1       8.696 -13.270  16.767  0.00  0.00    +0.059 C 
BRANCH   7   8
ATOM      8  SD  MET A   1       9.443 -14.081  18.232  0.00  0.00    -0.139 S 
ATOM      9  CE  MET A   1      10.820 -13.194  18.643  0.00  0.00    +0.069 C 
ENDBRANCH   7   8
ENDBRANCH   6   7
ENDBRANCH   1   6
TORSDOF 5
REMARK  Name = ../refined-set-2016/3arw/3arw_pocket.pdb
REMARK  130 active torsions:
REMARK  status: ('A' for Active; 'I' for Inactive)
REMARK    1  A    between atoms: _1  and  _3
REMARK    2  A    between atoms: _3  and  _4
REMARK    3  A    between atoms: _3  and  _6
REMARK    4  A    between atoms: _6  and  _7
REMARK    5  A    between atoms: _17  and  _19
REMARK    6  A    between atoms: _19  and  _20
REMARK    7  A    between atoms: _19  and  _22
REMARK    8  A    between atoms: _22  and  _23
REMARK    9  A    between atoms: _29  and  _31
REMARK   10  A    between atoms: _31  and  _32
REMARK   11  A    between atoms: _31  and  _34
REMARK   12  A    between atoms: _34  and  _35
REMARK   13  A    between atoms: _37  and  _39
REMARK   14  A    between atoms: _39  and  _40
REMARK   15  A    between atoms: _39  and  _42
REMARK   16  A    between atoms: _42  and  _43
REMARK   17  A    between atoms: _45  and  _47
REMARK   18  A    between atoms: _47  and  _48
REMARK   19  A    between atoms: _47  and  _50
REMARK   20  A    between atoms: _53  and  _55
REMARK   21  A    between atoms: _55  and  _56
REMARK   22  A    between atoms: _58  and  _60
REMARK   23  A    between atoms: _60  and  _61
REMARK   24  A    between atoms: _60  and  _63
REMARK   25  A    between atoms: _63  and  _64
REMARK   26  A    between atoms: _74  and  _76
REMARK   27  A    between atoms: _76  and  _77
REMARK   28  A    between atoms: _76  and  _79
REMARK   29  A    between atoms: _79  and  _80
REMARK   30  A    between atoms: _83  and  _85
REMARK   31  A    between atoms: _85  and  _86
REMARK   32  A    between atoms: _85  and  _88
REMARK   33  A    between atoms: _88  and  _89
REMARK   34  A    between atoms: _92  and  _94
REMARK   35  A    between atoms: _94  and  _95
REMARK   36  A    between atoms: _94  and  _97
REMARK   37  A    between atoms: _97  and  _98
REMARK   38  A    between atoms: _98  and  _99
REMARK   39  A    between atoms: _102  and  _104
REMARK   40  A    between atoms: _104  and  _105
REMARK   41  A    between atoms: _104  and  _107
REMARK   42  A    between atoms: _107  and  _108
REMARK   43  A    between atoms: _114  and  _116
REMARK   44  A    between atoms: _116  and  _117
REMARK   45  A    between atoms: _119  and  _121
REMARK   46  A    between atoms: _121  and  _122
REMARK   47  A    between atoms: _124  and  _126
REMARK   48  A    between atoms: _126  and  _127
REMARK   49  A    between atoms: _130  and  _132
REMARK   50  A    between atoms: _132  and  _133
REMARK   51  A    between atoms: _132  and  _135
REMARK   52  A    between atoms: _135  and  _136
REMARK   53  A    between atoms: _136  and  _137
REMARK   54  A    between atoms: _137  and  _138
REMARK   55  A    between atoms: _138  and  _139
REMARK   56  A    between atoms: _143  and  _145
REMARK   57  A    between atoms: _145  and  _146
REMARK   58  A    between atoms: _145  and  _148
REMARK   59  A    between atoms: _148  and  _149
REMARK   60  A    between atoms: _149  and  _150
REMARK   61  A    between atoms: _152  and  _154
REMARK   62  A    between atoms: _154  and  _155
REMARK   63  A    between atoms: _154  and  _157
REMARK   64  A    between atoms: _157  and  _158
REMARK   65  A    between atoms: _163  and  _164
REMARK   66  A    between atoms: _166  and  _168
REMARK   67  A    between atoms: _168  and  _169
REMARK   68  A    between atoms: _168  and  _171
REMARK   69  A    between atoms: _171  and  _172
REMARK   70  A    between atoms: _175  and  _177
REMARK   71  A    between atoms: _177  and  _178
REMARK   72  A    between atoms: _177  and  _180
REMARK   73  A    between atoms: _180  and  _181
REMARK   74  A    between atoms: _187  and  _189
REMARK   75  A    between atoms: _189  and  _190
REMARK   76  A    between atoms: _189  and  _192
REMARK   77  A    between atoms: _192  and  _193
REMARK   78  A    between atoms: _198  and  _199
REMARK   79  A    between atoms: _201  and  _203
REMARK   80  A    between atoms: _203  and  _204
REMARK   81  A    between atoms: _206  and  _208
REMARK   82  A    between atoms: _208  and  _209
REMARK   83  A    between atoms: _211  and  _213
REMARK   84  A    between atoms: _213  and  _214
REMARK   85  A    between atoms: _213  and  _216
REMARK   86  A    between atoms: _216  and  _217
REMARK   87  A    between atoms: _227  and  _229
REMARK   88  A    between atoms: _229  and  _230
REMARK   89  A    between atoms: _229  and  _232
REMARK   90  A    between atoms: _232  and  _233
REMARK   91  A    between atoms: _238  and  _240
REMARK   92  A    between atoms: _240  and  _241
REMARK   93  A    between atoms: _240  and  _243
REMARK   94  A    between atoms: _243  and  _244
REMARK   95  A    between atoms: _249  and  _250
REMARK   96  A    between atoms: _252  and  _254
REMARK   97  A    between atoms: _254  and  _255
REMARK   98  A    between atoms: _254  and  _257
REMARK   99  A    between atoms: _257  and  _258
REMARK  100  A    between atoms: _263  and  _264
REMARK  101  A    between atoms: _266  and  _268
REMARK  102  A    between atoms: _268  and  _269
REMARK  103  A    between atoms: _268  and  _271
REMARK  104  A    between atoms: _271  and  _272
REMARK  105  A    between atoms: _272  and  _273
REMARK  106  A    between atoms: _273  and  _274
REMARK  107  A    between atoms: _283  and  _285
REMARK  108  A    between atoms: _285  and  _286
REMARK  109  A    between atoms: _285  and  _288
REMARK  110  A    between atoms: _288  and  _289
REMARK  111  A    between atoms: _289  and  _290
REMARK  112  A    between atoms: _290  and  _291
REMARK  113  A    between atoms: _291  and  _292
REMARK  114  A    between atoms: _296  and  _298
REMARK  115  A    between atoms: _298  and  _299
REMARK  116  A    between atoms: _298  and  _301
REMARK  117  A    between atoms: _301  and  _302
REMARK  118  A    between atoms: _302  and  _303
REMARK  119  A    between atoms: _306  and  _308
REMARK  120  A    between atoms: _308  and  _309
REMARK  121  A    between atoms: _308  and  _311
REMARK  122  A    between atoms: _314  and  _316
REMARK  123  A    between atoms: _316  and  _317
REMARK  124  A    between atoms: _316  and  _319
REMARK  125  A    between atoms: _319  and  _320
REMARK  126  A    between atoms: _330  and  _332
REMARK  127  A    between atoms: _332  and  _333
REMARK  128  A    between atoms: _332  and  _335
REMARK  129  A    between atoms: _335  and  _336
REMARK  130  A    between atoms: _336  and  _337
REMARK                            x       y       z     vdW  Elec       q    Type
REMARK                         _______ _______ _______ _____ _____    ______ ____
ROOT
ATOM      1  CA  TYR A   4      20.419  -6.589  14.030  0.00  0.00    +0.153 C 
ENDROOT
BRANCH   1   2
ATOM      2  C   TYR A   4      20.004  -5.630  15.118  0.00  0.00    +0.241 C 
ATOM      3  N   GLY A   5      20.982  -5.282  15.952  0.00  0.00    -0.295 N 
ATOM      4  H   GLY A   5      21.951  -5.632  15.812  0.00  0.00    +0.150 HD
ATOM      5  O   TYR A   4      18.830  -5.262  15.286  0.00  0.00    -0.273 OA
BRANCH   3   6
ATOM      6  CA  GLY A   5      20.655  -4.384  17.085  0.00  0.00    +0.176 C 
BRANCH   6   7
ATOM      7  C   GLY A   5      21.856  -3.999  17.877  0.00  0.00    +0.243 C 
ATOM      8  N   GLY A   6      21.572  -3.247  18.931  0.00  0.00    -0.295 N 
ATOM      9  H   GLY A   6      20.573  -3.111  19.186  0.00  0.00    +0.150 HD
ATOM     10  O   GLY A   5      22.974  -4.376  17.586  0.00  0.00    -0.273 OA
BRANCH   8  11
ATOM     11  CA  GLY A   6      22.617  -2.583  19.773  0.00  0.00    +0.176 C 
BRANCH  11  12
ATOM     12  C   GLY A   6      23.271  -3.591  20.692  0.00  0.00    +0.243 C 
ATOM     13  O   GLY A   6      24.207  -3.195  21.404  0.00  0.00    -0.273 OA
ATOM     14  N   TRP A   7      22.864  -4.871  20.731  0.00  0.00    -0.297 N 
ATOM     15  H   TRP A   7      22.018  -5.166  20.203  0.00  0.00    +0.150 HD
BRANCH  14  16
ATOM     16  CA  TRP A   7      23.612  -5.843  21.515  0.00  0.00    +0.153 C 
BRANCH  16  17
ATOM     17  C   TRP A   7      25.045  -6.023  21.039  0.00  0.00    +0.241 C 
ATOM     18  O   TRP A   7      25.870  -6.565  21.772  0.00  0.00    -0.273 OA
ATOM     19  N   ASN A   8      25.344  -5.674  19.789  0.00  0.00    -0.298 N 
ATOM     20  H   ASN A   8      24.578  -5.445  19.124  0.00  0.00    +0.150 HD
BRANCH  19  21
ATOM     21  CA  ASN A   8      26.724  -5.609  19.342  0.00  0.00    +0.146 C 
BRANCH  21  22
ATOM     22  C   ASN A   8      26.954  -4.386  18.475  0.00  0.00    +0.227 C 
ATOM     23  O   ASN A   8      26.055  -3.523  18.441  0.00  0.00    -0.286 OA
ENDBRANCH  21  22
BRANCH  21  24
ATOM     24  CB  ASN A   8      27.122  -6.949  18.664  0.00  0.00    +0.112 C 
BRANCH  24  25
ATOM     25  CG  ASN A   8      26.329  -7.163  17.337  0.00  0.00    +0.222 C 
ATOM     26  ND2 ASN A   8      25.984  -8.425  17.004  0.00  0.00    -0.329 N 
ATOM     27 HD21 ASN A   8      26.332  -9.226  17.569  0.00  0.00    +0.145 HD
ATOM     28 HD22 ASN A   8      25.370  -8.597  16.182  0.00  0.00    +0.145 HD
ATOM     29  OD1 ASN A   8      25.943  -6.182  16.700  0.00  0.00    -0.275 OA
ENDBRANCH  24  25
ENDBRANCH  21  24
ENDBRANCH  19  21
ENDBRANCH  16  17
BRANCH  16  30
ATOM     30  CB  TRP A   7      22.885  -7.181  21.525  0.00  0.00    +0.057 C 
BRANCH  30  31
ATOM     31  CG  TRP A   7      22.475  -7.672  20.184  0.00  0.00    -0.002 A 
ATOM     32  CD2 TRP A   7      21.190  -7.480  19.582  0.00  0.00    +0.013 A 
ATOM     33  CE3 TRP A   7      20.030  -6.833  19.994  0.00  0.00    +0.001 A 
ATOM     34  CZ3 TRP A   7      18.920  -6.883  19.193  0.00  0.00    +0.000 A 
ATOM     35  CH2 TRP A   7      18.943  -7.497  17.918  0.00  0.00    +0.001 A 
ATOM     36  CZ2 TRP A   7      20.055  -8.160  17.442  0.00  0.00    +0.017 A 
ATOM     37  CE2 TRP A   7      21.216  -8.122  18.293  0.00  0.00    +0.056 A 
ATOM     38  NE1 TRP A   7      22.453  -8.670  18.132  0.00  0.00    -0.352 N 
ATOM     39  HE1 TRP A   7      22.785  -9.188  17.293  0.00  0.00    +0.166 HD
ATOM     40  CD1 TRP A   7      23.210  -8.414  19.303  0.00  0.00    +0.068 A 
ENDBRANCH  30  31
ENDBRANCH  16  30
ENDBRANCH  14  16
ENDBRANCH  11  12
ENDBRANCH   8  11
ENDBRANCH   6   7
ENDBRANCH   3   6
ENDBRANCH   1   2
BRANCH   1  42
ATOM     41  C   PHE A   3      19.081  -8.650  13.427  0.00  0.00    +0.241 C 
ATOM     42  N   TYR A   4      19.178  -7.319  13.681  0.00  0.00    -0.297 N 
ATOM     43  H   TYR A   4      18.302  -6.762  13.625  0.00  0.00    +0.150 HD
ATOM     44  O   PHE A   3      20.060  -9.383  13.286  0.00  0.00    -0.273 OA
BRANCH  41  45
ATOM     45  CA  PHE A   3      17.678  -9.130  13.087  0.00  0.00    +0.153 C 
BRANCH  45  48
ATOM     46  C   ASP A   2      16.435  -8.629  15.078  0.00  0.00    +0.241 C 
ATOM     47  O   ASP A   2      17.145  -9.404  15.748  0.00  0.00    -0.273 OA
ATOM     48  N   PHE A   3      16.644  -8.371  13.775  0.00  0.00    -0.297 N 
ATOM     49  H   PHE A   3      16.084  -7.652  13.274  0.00  0.00    +0.150 HD
BRANCH  46  50
ATOM     50  CA  ASP A   2      15.332  -7.801  15.785  0.00  0.00    +0.160 C 
BRANCH  50  52
ATOM     51  C   TYR A   1      13.406  -8.489  14.383  0.00  0.00    +0.239 C 
ATOM     52  N   ASP A   2      14.170  -7.520  14.905  0.00  0.00    -0.297 N 
ATOM     53  H   ASP A   2      13.939  -6.530  14.685  0.00  0.00    +0.150 HD
ATOM     54  O   TYR A   1      13.631  -9.679  14.607  0.00  0.00    -0.274 OA
BRANCH  51  55
ATOM     55  CA  TYR A   1      12.311  -8.045  13.411  0.00  0.00    +0.149 C 
BRANCH  55  56
ATOM     56  N   TYR A   1      11.686  -9.265  12.819  0.00  0.00    -0.238 NA
ATOM     57  H   TYR A   1      11.813 -10.174  13.307  0.00  0.00    +0.142 HD
ENDBRANCH  55  56
BRANCH  55  58
ATOM     58  CB  TYR A   1      11.305  -7.079  14.106  0.00  0.00    +0.053 C 
BRANCH  58  59
ATOM     59  CG  TYR A   1      10.279  -7.787  14.928  0.00  0.00    -0.020 A 
ATOM     60  CD2 TYR A   1      10.596  -8.407  16.143  0.00  0.00    -0.001 A 
ATOM     61  CE2 TYR A   1       9.578  -9.001  16.980  0.00  0.00    +0.036 A 
ATOM     62  CZ  TYR A   1       8.310  -8.964  16.542  0.00  0.00    +0.134 A 
ATOM     63  CE1 TYR A   1       7.956  -8.396  15.329  0.00  0.00    +0.036 A 
ATOM     64  CD1 TYR A   1       8.941  -7.788  14.512  0.00  0.00    -0.001 A 
BRANCH  62  65
ATOM     65  OH  TYR A   1       7.309  -9.521  17.368  0.00  0.00    -0.506 OA
ATOM     66  HH  TYR A   1       7.725  -9.882  18.191  0.00  0.00    +0.292 HD
ENDBRANCH  62  65
ENDBRANCH  58  59
ENDBRANCH  55  58
ENDBRANCH  51  55
ENDBRANCH  50  52
BRANCH  50  67
ATOM     67  CB  ASP A   2      14.950  -8.505  17.134  0.00  0.00    +0.143 C 
BRANCH  67  68
ATOM     68  CG  ASP A   2      14.020  -7.719  17.963  0.00  0.00    +0.367 C 
ATOM     69  OD2 ASP A   2      13.233  -8.308  18.786  0.00  0.00    -0.246 OA
ATOM     70  OD1 ASP A   2      13.944  -6.465  17.814  0.00  0.00    -0.246 OA
ENDBRANCH  67  68
ENDBRANCH  50  67
ENDBRANCH  46  50
ENDBRANCH  45  48
BRANCH  45  71
ATOM     71  CB  PHE A   3      17.482  -9.021  11.562  0.00  0.00    +0.055 C 
BRANCH  71  72
ATOM     72  CG  PHE A   3      16.169  -9.553  11.054  0.00  0.00    -0.020 A 
ATOM     73  CD2 PHE A   3      15.620 -10.709  11.670  0.00  0.00    -0.004 A 
ATOM     74  CE2 PHE A   3      14.407 -11.249  11.201  0.00  0.00    -0.000 A 
ATOM     75  CZ  PHE A   3      13.808 -10.675  10.065  0.00  0.00    -0.000 A 
ATOM     76  CE1 PHE A   3      14.351  -9.515   9.418  0.00  0.00    -0.000 A 
ATOM     77  CD1 PHE A   3      15.572  -9.028   9.863  0.00  0.00    -0.004 A 
ENDBRANCH  71  72
ENDBRANCH  45  71
ENDBRANCH  41  45
ENDBRANCH   1  42
BRANCH   1  78
ATOM     78  CB  TYR A   4      20.949  -5.777  12.877  0.00  0.00    +0.055 C 
BRANCH  78  79
ATOM     79  CG  TYR A   4      21.578  -6.675  11.857  0.00  0.00    -0.020 A 
ATOM     80  CD2 TYR A   4      22.971  -6.834  11.796  0.00  0.00    -0.001 A 
ATOM     81  CE2 TYR A   4      23.548  -7.597  10.839  0.00  0.00    +0.036 A 
ATOM     82  CZ  TYR A   4      22.804  -8.302   9.900  0.00  0.00    +0.134 A 
ATOM     83  CE1 TYR A   4      21.451  -8.171   9.903  0.00  0.00    +0.036 A 
ATOM     84  CD1 TYR A   4      20.821  -7.334  10.854  0.00  0.00    -0.001 A 
BRANCH  82  85
ATOM     85  OH  TYR A   4      23.412  -9.140   8.926  0.00  0.00    -0.506 OA
ATOM     86  HH  TYR A   4      24.022  -8.601   8.363  0.00  0.00    +0.292 HD
ENDBRANCH  82  85
ENDBRANCH  78  79
ENDBRANCH   1  78
TORSDOF 30
REMARK  Name = ../refined-set-2016/3arw/3arw_pocket.pdb
REMARK  130 active torsions:
REMARK  status: ('A' for Active; 'I' for Inactive)
REMARK    1  A    between atoms: _1  and  _3
REMARK    2  A    between atoms: _3  and  _4
REMARK    3  A    between atoms: _3  and  _6
REMARK    4  A    between atoms: _6  and  _7
REMARK    5  A    between atoms: _17  and  _19
REMARK    6  A    between atoms: _19  and  _20
REMARK    7  A    between atoms: _19  and  _22
REMARK    8  A    between atoms: _22  and  _23
REMARK    9  A    between atoms: _29  and  _31
REMARK   10  A    between atoms: _31  and  _32
REMARK   11  A    between atoms: _31  and  _34
REMARK   12  A    between atoms: _34  and  _35
REMARK   13  A    between atoms: _37  and  _39
REMARK   14  A    between atoms: _39  and  _40
REMARK   15  A    between atoms: _39  and  _42
REMARK   16  A    between atoms: _42  and  _43
REMARK   17  A    between atoms: _45  and  _47
REMARK   18  A    between atoms: _47  and  _48
REMARK   19  A    between atoms: _47  and  _50
REMARK   20  A    between atoms: _53  and  _55
REMARK   21  A    between atoms: _55  and  _56
REMARK   22  A    between atoms: _58  and  _60
REMARK   23  A    between atoms: _60  and  _61
REMARK   24  A    between atoms: _60  and  _63
REMARK   25  A    between atoms: _63  and  _64
REMARK   26  A    between atoms: _74  and  _76
REMARK   27  A    between atoms: _76  and  _77
REMARK   28  A    between atoms: _76  and  _79
REMARK   29  A    between atoms: _79  and  _80
REMARK   30  A    between atoms: _83  and  _85
REMARK   31  A    between atoms: _85  and  _86
REMARK   32  A    between atoms: _85  and  _88
REMARK   33  A    between atoms: _88  and  _89
REMARK   34  A    between atoms: _92  and  _94
REMARK   35  A    between atoms: _94  and  _95
REMARK   36  A    between atoms: _94  and  _97
REMARK   37  A    between atoms: _97  and  _98
REMARK   38  A    between atoms: _98  and  _99
REMARK   39  A    between atoms: _102  and  _104
REMARK   40  A    between atoms: _104  and  _105
REMARK   41  A    between atoms: _104  and  _107
REMARK   42  A    between atoms: _107  and  _108
REMARK   43  A    between atoms: _114  and  _116
REMARK   44  A    between atoms: _116  and  _117
REMARK   45  A    between atoms: _119  and  _121
REMARK   46  A    between atoms: _121  and  _122
REMARK   47  A    between atoms: _124  and  _126
REMARK   48  A    between atoms: _126  and  _127
REMARK   49  A    between atoms: _130  and  _132
REMARK   50  A    between atoms: _132  and  _133
REMARK   51  A    between atoms: _132  and  _135
REMARK   52  A    between atoms: _135  and  _136
REMARK   53  A    between atoms: _136  and  _137
REMARK   54  A    between atoms: _137  and  _138
REMARK   55  A    between atoms: _138  and  _139
REMARK   56  A    between atoms: _143  and  _145
REMARK   57  A    between atoms: _145  and  _146
REMARK   58  A    between atoms: _145  and  _148
REMARK   59  A    between atoms: _148  and  _149
REMARK   60  A    between atoms: _149  and  _150
REMARK   61  A    between atoms: _152  and  _154
REMARK   62  A    between atoms: _154  and  _155
REMARK   63  A    between atoms: _154  and  _157
REMARK   64  A    between atoms: _157  and  _158
REMARK   65  A    between atoms: _163  and  _164
REMARK   66  A    between atoms: _166  and  _168
REMARK   67  A    between atoms: _168  and  _169
REMARK   68  A    between atoms: _168  and  _171
REMARK   69  A    between atoms: _171  and  _172
REMARK   70  A    between atoms: _175  and  _177
REMARK   71  A    between atoms: _177  and  _178
REMARK   72  A    between atoms: _177  and  _180
REMARK   73  A    between atoms: _180  and  _181
REMARK   74  A    between atoms: _187  and  _189
REMARK   75  A    between atoms: _189  and  _190
REMARK   76  A    between atoms: _189  and  _192
REMARK   77  A    between atoms: _192  and  _193
REMARK   78  A    between atoms: _198  and  _199
REMARK   79  A    between atoms: _201  and  _203
REMARK   80  A    between atoms: _203  and  _204
REMARK   81  A    between atoms: _206  and  _208
REMARK   82  A    between atoms: _208  and  _209
REMARK   83  A    between atoms: _211  and  _213
REMARK   84  A    between atoms: _213  and  _214
REMARK   85  A    between atoms: _213  and  _216
REMARK   86  A    between atoms: _216  and  _217
REMARK   87  A    between atoms: _227  and  _229
REMARK   88  A    between atoms: _229  and  _230
REMARK   89  A    between atoms: _229  and  _232
REMARK   90  A    between atoms: _232  and  _233
REMARK   91  A    between atoms: _238  and  _240
REMARK   92  A    between atoms: _240  and  _241
REMARK   93  A    between atoms: _240  and  _243
REMARK   94  A    between atoms: _243  and  _244
REMARK   95  A    between atoms: _249  and  _250
REMARK   96  A    between atoms: _252  and  _254
REMARK   97  A    between atoms: _254  and  _255
REMARK   98  A    between atoms: _254  and  _257
REMARK   99  A    between atoms: _257  and  _258
REMARK  100  A    between atoms: _263  and  _264
REMARK  101  A    between atoms: _266  and  _268
REMARK  102  A    between atoms: _268  and  _269
REMARK  103  A    between atoms: _268  and  _271
REMARK  104  A    between atoms: _271  and  _272
REMARK  105  A    between atoms: _272  and  _273
REMARK  106  A    between atoms: _273  and  _274
REMARK  107  A    between atoms: _283  and  _285
REMARK  108  A    between atoms: _285  and  _286
REMARK  109  A    between atoms: _285  and  _288
REMARK  110  A    between atoms: _288  and  _289
REMARK  111  A    between atoms: _289  and  _290
REMARK  112  A    between atoms: _290  and  _291
REMARK  113  A    between atoms: _291  and  _292
REMARK  114  A    between atoms: _296  and  _298
REMARK  115  A    between atoms: _298  and  _299
REMARK  116  A    between atoms: _298  and  _301
REMARK  117  A    between atoms: _301  and  _302
REMARK  118  A    between atoms: _302  and  _303
REMARK  119  A    between atoms: _306  and  _308
REMARK  120  A    between atoms: _308  and  _309
REMARK  121  A    between atoms: _308  and  _311
REMARK  122  A    between atoms: _314  and  _316
REMARK  123  A    between atoms: _316  and  _317
REMARK  124  A    between atoms: _316  and  _319
REMARK  125  A    between atoms: _319  and  _320
REMARK  126  A    between atoms: _330  and  _332
REMARK  127  A    between atoms: _332  and  _333
REMARK  128  A    between atoms: _332  and  _335
REMARK  129  A    between atoms: _335  and  _336
REMARK  130  A    between atoms: _336  and  _337
REMARK                            x       y       z     vdW  Elec       q    Type
REMARK                         _______ _______ _______ _____ _____    ______ ____
ROOT
ATOM      1  CG  TYR A   1      19.258 -13.289  11.425  0.00  0.00    -0.020 A 
ATOM      2  CD2 TYR A   1      19.146 -12.934  12.790  0.00  0.00    -0.001 A 
ATOM      3  CE2 TYR A   1      19.380 -13.864  13.799  0.00  0.00    +0.036 A 
ATOM      4  CZ  TYR A   1      19.647 -15.183  13.468  0.00  0.00    +0.134 A 
ATOM      5  CE1 TYR A   1      19.729 -15.576  12.095  0.00  0.00    +0.036 A 
ATOM      6  CD1 TYR A   1      19.447 -14.628  11.122  0.00  0.00    -0.001 A 
ENDROOT
BRANCH   4   7
ATOM      7  OH  TYR A   1      19.870 -16.104  14.542  0.00  0.00    -0.506 OA
ATOM      8  HH  TYR A   1      20.048 -17.005  14.171  0.00  0.00    +0.292 HD
ENDBRANCH   4   7
BRANCH   1   9
ATOM      9  CB  TYR A   1      18.933 -12.264  10.378  0.00  0.00    +0.051 C 
BRANCH   9  10
ATOM     10  CA  TYR A   1      18.642 -12.781   8.953  0.00  0.00    +0.137 C 
BRANCH  10  11
ATOM     11  N   TYR A   1      19.927 -13.086   8.284  0.00  0.00    -0.239 NA
ATOM     12  H   TYR A   1      20.817 -12.667   8.620  0.00  0.00    +0.142 HD
ENDBRANCH  10  11
BRANCH  10  13
ATOM     13  C   TYR A   1      17.871 -11.726   8.134  0.00  0.00    +0.224 C 
ATOM     14  O   TYR A   1      18.128 -10.508   8.268  0.00  0.00    -0.287 OA
ENDBRANCH  10  13
ENDBRANCH   9  10
ENDBRANCH   1   9
TORSDOF 5
REMARK  Name = ../refined-set-2016/3arw/3arw_pocket.pdb
REMARK  130 active torsions:
REMARK  status: ('A' for Active; 'I' for Inactive)
REMARK    1  A    between atoms: _1  and  _3
REMARK    2  A    between atoms: _3  and  _4
REMARK    3  A    between atoms: _3  and  _6
REMARK    4  A    between atoms: _6  and  _7
REMARK    5  A    between atoms: _17  and  _19
REMARK    6  A    between atoms: _19  and  _20
REMARK    7  A    between atoms: _19  and  _22
REMARK    8  A    between atoms: _22  and  _23
REMARK    9  A    between atoms: _29  and  _31
REMARK   10  A    between atoms: _31  and  _32
REMARK   11  A    between atoms: _31  and  _34
REMARK   12  A    between atoms: _34  and  _35
REMARK   13  A    between atoms: _37  and  _39
REMARK   14  A    between atoms: _39  and  _40
REMARK   15  A    between atoms: _39  and  _42
REMARK   16  A    between atoms: _42  and  _43
REMARK   17  A    between atoms: _45  and  _47
REMARK   18  A    between atoms: _47  and  _48
REMARK   19  A    between atoms: _47  and  _50
REMARK   20  A    between atoms: _53  and  _55
REMARK   21  A    between atoms: _55  and  _56
REMARK   22  A    between atoms: _58  and  _60
REMARK   23  A    between atoms: _60  and  _61
REMARK   24  A    between atoms: _60  and  _63
REMARK   25  A    between atoms: _63  and  _64
REMARK   26  A    between atoms: _74  and  _76
REMARK   27  A    between atoms: _76  and  _77
REMARK   28  A    between atoms: _76  and  _79
REMARK   29  A    between atoms: _79  and  _80
REMARK   30  A    between atoms: _83  and  _85
REMARK   31  A    between atoms: _85  and  _86
REMARK   32  A    between atoms: _85  and  _88
REMARK   33  A    between atoms: _88  and  _89
REMARK   34  A    between atoms: _92  and  _94
REMARK   35  A    between atoms: _94  and  _95
REMARK   36  A    between atoms: _94  and  _97
REMARK   37  A    between atoms: _97  and  _98
REMARK   38  A    between atoms: _98  and  _99
REMARK   39  A    between atoms: _102  and  _104
REMARK   40  A    between atoms: _104  and  _105
REMARK   41  A    between atoms: _104  and  _107
REMARK   42  A    between atoms: _107  and  _108
REMARK   43  A    between atoms: _114  and  _116
REMARK   44  A    between atoms: _116  and  _117
REMARK   45  A    between atoms: _119  and  _121
REMARK   46  A    between atoms: _121  and  _122
REMARK   47  A    between atoms: _124  and  _126
REMARK   48  A    between atoms: _126  and  _127
REMARK   49  A    between atoms: _130  and  _132
REMARK   50  A    between atoms: _132  and  _133
REMARK   51  A    between atoms: _132  and  _135
REMARK   52  A    between atoms: _135  and  _136
REMARK   53  A    between atoms: _136  and  _137
REMARK   54  A    between atoms: _137  and  _138
REMARK   55  A    between atoms: _138  and  _139
REMARK   56  A    between atoms: _143  and  _145
REMARK   57  A    between atoms: _145  and  _146
REMARK   58  A    between atoms: _145  and  _148
REMARK   59  A    between atoms: _148  and  _149
REMARK   60  A    between atoms: _149  and  _150
REMARK   61  A    between atoms: _152  and  _154
REMARK   62  A    between atoms: _154  and  _155
REMARK   63  A    between atoms: _154  and  _157
REMARK   64  A    between atoms: _157  and  _158
REMARK   65  A    between atoms: _163  and  _164
REMARK   66  A    between atoms: _166  and  _168
REMARK   67  A    between atoms: _168  and  _169
REMARK   68  A    between atoms: _168  and  _171
REMARK   69  A    between atoms: _171  and  _172
REMARK   70  A    between atoms: _175  and  _177
REMARK   71  A    between atoms: _177  and  _178
REMARK   72  A    between atoms: _177  and  _180
REMARK   73  A    between atoms: _180  and  _181
REMARK   74  A    between atoms: _187  and  _189
REMARK   75  A    between atoms: _189  and  _190
REMARK   76  A    between atoms: _189  and  _192
REMARK   77  A    between atoms: _192  and  _193
REMARK   78  A    between atoms: _198  and  _199
REMARK   79  A    between atoms: _201  and  _203
REMARK   80  A    between atoms: _203  and  _204
REMARK   81  A    between atoms: _206  and  _208
REMARK   82  A    between atoms: _208  and  _209
REMARK   83  A    between atoms: _211  and  _213
REMARK   84  A    between atoms: _213  and  _214
REMARK   85  A    between atoms: _213  and  _216
REMARK   86  A    between atoms: _216  and  _217
REMARK   87  A    between atoms: _227  and  _229
REMARK   88  A    between atoms: _229  and  _230
REMARK   89  A    between atoms: _229  and  _232
REMARK   90  A    between atoms: _232  and  _233
REMARK   91  A    between atoms: _238  and  _240
REMARK   92  A    between atoms: _240  and  _241
REMARK   93  A    between atoms: _240  and  _243
REMARK   94  A    between atoms: _243  and  _244
REMARK   95  A    between atoms: _249  and  _250
REMARK   96  A    between atoms: _252  and  _254
REMARK   97  A    between atoms: _254  and  _255
REMARK   98  A    between atoms: _254  and  _257
REMARK   99  A    between atoms: _257  and  _258
REMARK  100  A    between atoms: _263  and  _264
REMARK  101  A    between atoms: _266  and  _268
REMARK  102  A    between atoms: _268  and  _269
REMARK  103  A    between atoms: _268  and  _271
REMARK  104  A    between atoms: _271  and  _272
REMARK  105  A    between atoms: _272  and  _273
REMARK  106  A    between atoms: _273  and  _274
REMARK  107  A    between atoms: _283  and  _285
REMARK  108  A    between atoms: _285  and  _286
REMARK  109  A    between atoms: _285  and  _288
REMARK  110  A    between atoms: _288  and  _289
REMARK  111  A    between atoms: _289  and  _290
REMARK  112  A    between atoms: _290  and  _291
REMARK  113  A    between atoms: _291  and  _292
REMARK  114  A    between atoms: _296  and  _298
REMARK  115  A    between atoms: _298  and  _299
REMARK  116  A    between atoms: _298  and  _301
REMARK  117  A    between atoms: _301  and  _302
REMARK  118  A    between atoms: _302  and  _303
REMARK  119  A    between atoms: _306  and  _308
REMARK  120  A    between atoms: _308  and  _309
REMARK  121  A    between atoms: _308  and  _311
REMARK  122  A    between atoms: _314  and  _316
REMARK  123  A    between atoms: _316  and  _317
REMARK  124  A    between atoms: _316  and  _319
REMARK  125  A    between atoms: _319  and  _320
REMARK  126  A    between atoms: _330  and  _332
REMARK  127  A    between atoms: _332  and  _333
REMARK  128  A    between atoms: _332  and  _335
REMARK  129  A    between atoms: _335  and  _336
REMARK  130  A    between atoms: _336  and  _337
REMARK                            x       y       z     vdW  Elec       q    Type
REMARK                         _______ _______ _______ _____ _____    ______ ____
ROOT
ATOM      1  CG  TYR A   1      10.910  -1.457  18.122  0.00  0.00    -0.020 A 
ATOM      2  CD2 TYR A   1      12.224  -1.919  18.138  0.00  0.00    -0.001 A 
ATOM      3  CE2 TYR A   1      12.490  -3.304  17.842  0.00  0.00    +0.036 A 
ATOM      4  CZ  TYR A   1      11.361  -4.042  17.593  0.00  0.00    +0.134 A 
ATOM      5  CE1 TYR A   1      10.110  -3.642  17.620  0.00  0.00    +0.036 A 
ATOM      6  CD1 TYR A   1       9.846  -2.297  17.884  0.00  0.00    -0.001 A 
ENDROOT
BRANCH   4   7
ATOM      7  OH  TYR A   1      11.500  -5.417  17.383  0.00  0.00    -0.506 OA
ATOM      8  HH  TYR A   1      11.905  -5.833  18.185  0.00  0.00    +0.292 HD
ENDBRANCH   4   7
BRANCH   1   9
ATOM      9  CB  TYR A   1      10.619   0.039  18.385  0.00  0.00    +0.051 C 
BRANCH   9  10
ATOM     10  CA  TYR A   1      10.410   0.815  17.008  0.00  0.00    +0.137 C 
BRANCH  10  11
ATOM     11  N   TYR A   1       9.242   0.257  16.278  0.00  0.00    -0.239 NA
ATOM     12  H   TYR A   1       9.412  -0.461  15.545  0.00  0.00    +0.142 HD
ENDBRANCH  10  11
BRANCH  10  13
ATOM     13  C   TYR A   1      11.613   0.659  16.118  0.00  0.00    +0.224 C 
ATOM     14  O   TYR A   1      11.657  -0.153  15.169  0.00  0.00    -0.287 OA
ENDBRANCH  10  13
ENDBRANCH   9  10
ENDBRANCH   1   9
TORSDOF 5
REMARK  Name = ../refined-set-2016/3arw/3arw_pocket.pdb
REMARK  130 active torsions:
REMARK  status: ('A' for Active; 'I' for Inactive)
REMARK    1  A    between atoms: _1  and  _3
REMARK    2  A    between atoms: _3  and  _4
REMARK    3  A    between atoms: _3  and  _6
REMARK    4  A    between atoms: _6  and  _7
REMARK    5  A    between atoms: _17  and  _19
REMARK    6  A    between atoms: _19  and  _20
REMARK    7  A    between atoms: _19  and  _22
REMARK    8  A    between atoms: _22  and  _23
REMARK    9  A    between atoms: _29  and  _31
REMARK   10  A    between atoms: _31  and  _32
REMARK   11  A    between atoms: _31  and  _34
REMARK   12  A    between atoms: _34  and  _35
REMARK   13  A    between atoms: _37  and  _39
REMARK   14  A    between atoms: _39  and  _40
REMARK   15  A    between atoms: _39  and  _42
REMARK   16  A    between atoms: _42  and  _43
REMARK   17  A    between atoms: _45  and  _47
REMARK   18  A    between atoms: _47  and  _48
REMARK   19  A    between atoms: _47  and  _50
REMARK   20  A    between atoms: _53  and  _55
REMARK   21  A    between atoms: _55  and  _56
REMARK   22  A    between atoms: _58  and  _60
REMARK   23  A    between atoms: _60  and  _61
REMARK   24  A    between atoms: _60  and  _63
REMARK   25  A    between atoms: _63  and  _64
REMARK   26  A    between atoms: _74  and  _76
REMARK   27  A    between atoms: _76  and  _77
REMARK   28  A    between atoms: _76  and  _79
REMARK   29  A    between atoms: _79  and  _80
REMARK   30  A    between atoms: _83  and  _85
REMARK   31  A    between atoms: _85  and  _86
REMARK   32  A    between atoms: _85  and  _88
REMARK   33  A    between atoms: _88  and  _89
REMARK   34  A    between atoms: _92  and  _94
REMARK   35  A    between atoms: _94  and  _95
REMARK   36  A    between atoms: _94  and  _97
REMARK   37  A    between atoms: _97  and  _98
REMARK   38  A    between atoms: _98  and  _99
REMARK   39  A    between atoms: _102  and  _104
REMARK   40  A    between atoms: _104  and  _105
REMARK   41  A    between atoms: _104  and  _107
REMARK   42  A    between atoms: _107  and  _108
REMARK   43  A    between atoms: _114  and  _116
REMARK   44  A    between atoms: _116  and  _117
REMARK   45  A    between atoms: _119  and  _121
REMARK   46  A    between atoms: _121  and  _122
REMARK   47  A    between atoms: _124  and  _126
REMARK   48  A    between atoms: _126  and  _127
REMARK   49  A    between atoms: _130  and  _132
REMARK   50  A    between atoms: _132  and  _133
REMARK   51  A    between atoms: _132  and  _135
REMARK   52  A    between atoms: _135  and  _136
REMARK   53  A    between atoms: _136  and  _137
REMARK   54  A    between atoms: _137  and  _138
REMARK   55  A    between atoms: _138  and  _139
REMARK   56  A    between atoms: _143  and  _145
REMARK   57  A    between atoms: _145  and  _146
REMARK   58  A    between atoms: _145  and  _148
REMARK   59  A    between atoms: _148  and  _149
REMARK   60  A    between atoms: _149  and  _150
REMARK   61  A    between atoms: _152  and  _154
REMARK   62  A    between atoms: _154  and  _155
REMARK   63  A    between atoms: _154  and  _157
REMARK   64  A    between atoms: _157  and  _158
REMARK   65  A    between atoms: _163  and  _164
REMARK   66  A    between atoms: _166  and  _168
REMARK   67  A    between atoms: _168  and  _169
REMARK   68  A    between atoms: _168  and  _171
REMARK   69  A    between atoms: _171  and  _172
REMARK   70  A    between atoms: _175  and  _177
REMARK   71  A    between atoms: _177  and  _178
REMARK   72  A    between atoms: _177  and  _180
REMARK   73  A    between atoms: _180  and  _181
REMARK   74  A    between atoms: _187  and  _189
REMARK   75  A    between atoms: _189  and  _190
REMARK   76  A    between atoms: _189  and  _192
REMARK   77  A    between atoms: _192  and  _193
REMARK   78  A    between atoms: _198  and  _199
REMARK   79  A    between atoms: _201  and  _203
REMARK   80  A    between atoms: _203  and  _204
REMARK   81  A    between atoms: _206  and  _208
REMARK   82  A    between atoms: _208  and  _209
REMARK   83  A    between atoms: _211  and  _213
REMARK   84  A    between atoms: _213  and  _214
REMARK   85  A    between atoms: _213  and  _216
REMARK   86  A    between atoms: _216  and  _217
REMARK   87  A    between atoms: _227  and  _229
REMARK   88  A    between atoms: _229  and  _230
REMARK   89  A    between atoms: _229  and  _232
REMARK   90  A    between atoms: _232  and  _233
REMARK   91  A    between atoms: _238  and  _240
REMARK   92  A    between atoms: _240  and  _241
REMARK   93  A    between atoms: _240  and  _243
REMARK   94  A    between atoms: _243  and  _244
REMARK   95  A    between atoms: _249  and  _250
REMARK   96  A    between atoms: _252  and  _254
REMARK   97  A    between atoms: _254  and  _255
REMARK   98  A    between atoms: _254  and  _257
REMARK   99  A    between atoms: _257  and  _258
REMARK  100  A    between atoms: _263  and  _264
REMARK  101  A    between atoms: _266  and  _268
REMARK  102  A    between atoms: _268  and  _269
REMARK  103  A    between atoms: _268  and  _271
REMARK  104  A    between atoms: _271  and  _272
REMARK  105  A    between atoms: _272  and  _273
REMARK  106  A    between atoms: _273  and  _274
REMARK  107  A    between atoms: _283  and  _285
REMARK  108  A    between atoms: _285  and  _286
REMARK  109  A    between atoms: _285  and  _288
REMARK  110  A    between atoms: _288  and  _289
REMARK  111  A    between atoms: _289  and  _290
REMARK  112  A    between atoms: _290  and  _291
REMARK  113  A    between atoms: _291  and  _292
REMARK  114  A    between atoms: _296  and  _298
REMARK  115  A    between atoms: _298  and  _299
REMARK  116  A    between atoms: _298  and  _301
REMARK  117  A    between atoms: _301  and  _302
REMARK  118  A    between atoms: _302  and  _303
REMARK  119  A    between atoms: _306  and  _308
REMARK  120  A    between atoms: _308  and  _309
REMARK  121  A    between atoms: _308  and  _311
REMARK  122  A    between atoms: _314  and  _316
REMARK  123  A    between atoms: _316  and  _317
REMARK  124  A    between atoms: _316  and  _319
REMARK  125  A    between atoms: _319  and  _320
REMARK  126  A    between atoms: _330  and  _332
REMARK  127  A    between atoms: _332  and  _333
REMARK  128  A    between atoms: _332  and  _335
REMARK  129  A    between atoms: _335  and  _336
REMARK  130  A    between atoms: _336  and  _337
REMARK                            x       y       z     vdW  Elec       q    Type
REMARK                         _______ _______ _______ _____ _____    ______ ____
ROOT
ATOM      1  NE  ARG A   1      15.904  -4.760  18.601  0.00  0.00    -0.265 N 
ATOM      2  CZ  ARG A   1      15.888  -4.873  19.928  0.00  0.00    +0.342 C 
ATOM      3  NH2 ARG A   1      16.861  -4.375  20.689  0.00  0.00    -0.292 N 
ATOM      4 HH21 ARG A   1      16.818  -4.480  21.723  0.00  0.00    +0.255 HD
ATOM      5 HH22 ARG A   1      17.664  -3.881  20.249  0.00  0.00    +0.255 HD
ATOM      6  NH1 ARG A   1      14.881  -5.586  20.481  0.00  0.00    -0.292 N 
ATOM      7 HH11 ARG A   1      14.830  -5.699  21.514  0.00  0.00    +0.255 HD
ATOM      8 HH12 ARG A   1      14.157  -6.021  19.874  0.00  0.00    +0.255 HD
ATOM      9  HE  ARG A   1      15.185  -5.259  18.039  0.00  0.00    +0.259 HD
ENDROOT
BRANCH   1  10
ATOM     10  CD  ARG A   1      16.918  -3.943  17.912  0.00  0.00    +0.174 C 
BRANCH  10  11
ATOM     11  CG  ARG A   1      16.384  -2.527  17.686  0.00  0.00    +0.045 C 
BRANCH  11  12
ATOM     12  CB  ARG A   1      17.508  -1.766  17.081  0.00  0.00    +0.029 C 
BRANCH  12  13
ATOM     13  CA  ARG A   1      17.192  -0.231  17.127  0.00  0.00    +0.133 C 
BRANCH  13  14
ATOM     14  N   ARG A   1      16.027   0.140  16.292  0.00  0.00    -0.239 NA
ATOM     15  H   ARG A   1      16.034  -0.021  15.265  0.00  0.00    +0.142 HD
ENDBRANCH  13  14
BRANCH  13  16
ATOM     16  C   ARG A   1      18.331   0.647  16.590  0.00  0.00    +0.224 C 
ATOM     17  O   ARG A   1      18.365   1.011  15.397  0.00  0.00    -0.287 OA
ENDBRANCH  13  16
ENDBRANCH  12  13
ENDBRANCH  11  12
ENDBRANCH  10  11
ENDBRANCH   1  10
TORSDOF 6
REMARK  Name = ../refined-set-2016/3arw/3arw_pocket.pdb
REMARK  130 active torsions:
REMARK  status: ('A' for Active; 'I' for Inactive)
REMARK    1  A    between atoms: _1  and  _3
REMARK    2  A    between atoms: _3  and  _4
REMARK    3  A    between atoms: _3  and  _6
REMARK    4  A    between atoms: _6  and  _7
REMARK    5  A    between atoms: _17  and  _19
REMARK    6  A    between atoms: _19  and  _20
REMARK    7  A    between atoms: _19  and  _22
REMARK    8  A    between atoms: _22  and  _23
REMARK    9  A    between atoms: _29  and  _31
REMARK   10  A    between atoms: _31  and  _32
REMARK   11  A    between atoms: _31  and  _34
REMARK   12  A    between atoms: _34  and  _35
REMARK   13  A    between atoms: _37  and  _39
REMARK   14  A    between atoms: _39  and  _40
REMARK   15  A    between atoms: _39  and  _42
REMARK   16  A    between atoms: _42  and  _43
REMARK   17  A    between atoms: _45  and  _47
REMARK   18  A    between atoms: _47  and  _48
REMARK   19  A    between atoms: _47  and  _50
REMARK   20  A    between atoms: _53  and  _55
REMARK   21  A    between atoms: _55  and  _56
REMARK   22  A    between atoms: _58  and  _60
REMARK   23  A    between atoms: _60  and  _61
REMARK   24  A    between atoms: _60  and  _63
REMARK   25  A    between atoms: _63  and  _64
REMARK   26  A    between atoms: _74  and  _76
REMARK   27  A    between atoms: _76  and  _77
REMARK   28  A    between atoms: _76  and  _79
REMARK   29  A    between atoms: _79  and  _80
REMARK   30  A    between atoms: _83  and  _85
REMARK   31  A    between atoms: _85  and  _86
REMARK   32  A    between atoms: _85  and  _88
REMARK   33  A    between atoms: _88  and  _89
REMARK   34  A    between atoms: _92  and  _94
REMARK   35  A    between atoms: _94  and  _95
REMARK   36  A    between atoms: _94  and  _97
REMARK   37  A    between atoms: _97  and  _98
REMARK   38  A    between atoms: _98  and  _99
REMARK   39  A    between atoms: _102  and  _104
REMARK   40  A    between atoms: _104  and  _105
REMARK   41  A    between atoms: _104  and  _107
REMARK   42  A    between atoms: _107  and  _108
REMARK   43  A    between atoms: _114  and  _116
REMARK   44  A    between atoms: _116  and  _117
REMARK   45  A    between atoms: _119  and  _121
REMARK   46  A    between atoms: _121  and  _122
REMARK   47  A    between atoms: _124  and  _126
REMARK   48  A    between atoms: _126  and  _127
REMARK   49  A    between atoms: _130  and  _132
REMARK   50  A    between atoms: _132  and  _133
REMARK   51  A    between atoms: _132  and  _135
REMARK   52  A    between atoms: _135  and  _136
REMARK   53  A    between atoms: _136  and  _137
REMARK   54  A    between atoms: _137  and  _138
REMARK   55  A    between atoms: _138  and  _139
REMARK   56  A    between atoms: _143  and  _145
REMARK   57  A    between atoms: _145  and  _146
REMARK   58  A    between atoms: _145  and  _148
REMARK   59  A    between atoms: _148  and  _149
REMARK   60  A    between atoms: _149  and  _150
REMARK   61  A    between atoms: _152  and  _154
REMARK   62  A    between atoms: _154  and  _155
REMARK   63  A    between atoms: _154  and  _157
REMARK   64  A    between atoms: _157  and  _158
REMARK   65  A    between atoms: _163  and  _164
REMARK   66  A    between atoms: _166  and  _168
REMARK   67  A    between atoms: _168  and  _169
REMARK   68  A    between atoms: _168  and  _171
REMARK   69  A    between atoms: _171  and  _172
REMARK   70  A    between atoms: _175  and  _177
REMARK   71  A    between atoms: _177  and  _178
REMARK   72  A    between atoms: _177  and  _180
REMARK   73  A    between atoms: _180  and  _181
REMARK   74  A    between atoms: _187  and  _189
REMARK   75  A    between atoms: _189  and  _190
REMARK   76  A    between atoms: _189  and  _192
REMARK   77  A    between atoms: _192  and  _193
REMARK   78  A    between atoms: _198  and  _199
REMARK   79  A    between atoms: _201  and  _203
REMARK   80  A    between atoms: _203  and  _204
REMARK   81  A    between atoms: _206  and  _208
REMARK   82  A    between atoms: _208  and  _209
REMARK   83  A    between atoms: _211  and  _213
REMARK   84  A    between atoms: _213  and  _214
REMARK   85  A    between atoms: _213  and  _216
REMARK   86  A    between atoms: _216  and  _217
REMARK   87  A    between atoms: _227  and  _229
REMARK   88  A    between atoms: _229  and  _230
REMARK   89  A    between atoms: _229  and  _232
REMARK   90  A    between atoms: _232  and  _233
REMARK   91  A    between atoms: _238  and  _240
REMARK   92  A    between atoms: _240  and  _241
REMARK   93  A    between atoms: _240  and  _243
REMARK   94  A    between atoms: _243  and  _244
REMARK   95  A    between atoms: _249  and  _250
REMARK   96  A    between atoms: _252  and  _254
REMARK   97  A    between atoms: _254  and  _255
REMARK   98  A    between atoms: _254  and  _257
REMARK   99  A    between atoms: _257  and  _258
REMARK  100  A    between atoms: _263  and  _264
REMARK  101  A    between atoms: _266  and  _268
REMARK  102  A    between atoms: _268  and  _269
REMARK  103  A    between atoms: _268  and  _271
REMARK  104  A    between atoms: _271  and  _272
REMARK  105  A    between atoms: _272  and  _273
REMARK  106  A    between atoms: _273  and  _274
REMARK  107  A    between atoms: _283  and  _285
REMARK  108  A    between atoms: _285  and  _286
REMARK  109  A    between atoms: _285  and  _288
REMARK  110  A    between atoms: _288  and  _289
REMARK  111  A    between atoms: _289  and  _290
REMARK  112  A    between atoms: _290  and  _291
REMARK  113  A    between atoms: _291  and  _292
REMARK  114  A    between atoms: _296  and  _298
REMARK  115  A    between atoms: _298  and  _299
REMARK  116  A    between atoms: _298  and  _301
REMARK  117  A    between atoms: _301  and  _302
REMARK  118  A    between atoms: _302  and  _303
REMARK  119  A    between atoms: _306  and  _308
REMARK  120  A    between atoms: _308  and  _309
REMARK  121  A    between atoms: _308  and  _311
REMARK  122  A    between atoms: _314  and  _316
REMARK  123  A    between atoms: _316  and  _317
REMARK  124  A    between atoms: _316  and  _319
REMARK  125  A    between atoms: _319  and  _320
REMARK  126  A    between atoms: _330  and  _332
REMARK  127  A    between atoms: _332  and  _333
REMARK  128  A    between atoms: _332  and  _335
REMARK  129  A    between atoms: _335  and  _336
REMARK  130  A    between atoms: _336  and  _337
REMARK                            x       y       z     vdW  Elec       q    Type
REMARK                         _______ _______ _______ _____ _____    ______ ____
ROOT
ATOM      1  CG  LYS A   1      23.589  -0.461  23.030  0.00  0.00    -0.000 C 
ENDROOT
BRANCH   1   2
ATOM      2  CB  LYS A   1      23.434   1.030  22.928  0.00  0.00    +0.025 C 
BRANCH   2   3
ATOM      3  CA  LYS A   1      24.115   1.639  21.688  0.00  0.00    +0.133 C 
BRANCH   3   4
ATOM      4  N   LYS A   1      25.585   1.549  21.936  0.00  0.00    -0.239 NA
ATOM      5  H   LYS A   1      25.929   1.398  22.906  0.00  0.00    +0.142 HD
ENDBRANCH   3   4
BRANCH   3   6
ATOM      6  C   LYS A   1      23.660   3.097  21.575  0.00  0.00    +0.224 C 
ATOM      7  O   LYS A   1      24.261   3.988  22.226  0.00  0.00    -0.287 OA
ENDBRANCH   3   6
ENDBRANCH   2   3
ENDBRANCH   1   2
BRANCH   1   8
ATOM      8  CD  LYS A   1      22.947  -0.924  24.316  0.00  0.00    -0.024 C 
BRANCH   8   9
ATOM      9  CE  LYS A   1      23.194  -2.430  24.445  0.00  0.00    -0.086 C 
BRANCH   9  10
ATOM     10  NZ  LYS A   1      22.528  -2.820  25.721  0.00  0.00    +0.380 N 
ATOM     11  HZ1 LYS A   1      22.954  -2.291  26.509  0.00  0.00    -0.089 HD
ATOM     12  HZ2 LYS A   1      22.654  -3.840  25.879  0.00  0.00    -0.089 HD
ATOM     13  HZ3 LYS A   1      21.513  -2.600  25.662  0.00  0.00    -0.089 HD
ENDBRANCH   9  10
ENDBRANCH   8   9
ENDBRANCH   1   8
TORSDOF 7
REMARK  Name = ../refined-set-2016/3arw/3arw_pocket.pdb
REMARK  130 active torsions:
REMARK  status: ('A' for Active; 'I' for Inactive)
REMARK    1  A    between atoms: _1  and  _3
REMARK    2  A    between atoms: _3  and  _4
REMARK    3  A    between atoms: _3  and  _6
REMARK    4  A    between atoms: _6  and  _7
REMARK    5  A    between atoms: _17  and  _19
REMARK    6  A    between atoms: _19  and  _20
REMARK    7  A    between atoms: _19  and  _22
REMARK    8  A    between atoms: _22  and  _23
REMARK    9  A    between atoms: _29  and  _31
REMARK   10  A    between atoms: _31  and  _32
REMARK   11  A    between atoms: _31  and  _34
REMARK   12  A    between atoms: _34  and  _35
REMARK   13  A    between atoms: _37  and  _39
REMARK   14  A    between atoms: _39  and  _40
REMARK   15  A    between atoms: _39  and  _42
REMARK   16  A    between atoms: _42  and  _43
REMARK   17  A    between atoms: _45  and  _47
REMARK   18  A    between atoms: _47  and  _48
REMARK   19  A    between atoms: _47  and  _50
REMARK   20  A    between atoms: _53  and  _55
REMARK   21  A    between atoms: _55  and  _56
REMARK   22  A    between atoms: _58  and  _60
REMARK   23  A    between atoms: _60  and  _61
REMARK   24  A    between atoms: _60  and  _63
REMARK   25  A    between atoms: _63  and  _64
REMARK   26  A    between atoms: _74  and  _76
REMARK   27  A    between atoms: _76  and  _77
REMARK   28  A    between atoms: _76  and  _79
REMARK   29  A    between atoms: _79  and  _80
REMARK   30  A    between atoms: _83  and  _85
REMARK   31  A    between atoms: _85  and  _86
REMARK   32  A    between atoms: _85  and  _88
REMARK   33  A    between atoms: _88  and  _89
REMARK   34  A    between atoms: _92  and  _94
REMARK   35  A    between atoms: _94  and  _95
REMARK   36  A    between atoms: _94  and  _97
REMARK   37  A    between atoms: _97  and  _98
REMARK   38  A    between atoms: _98  and  _99
REMARK   39  A    between atoms: _102  and  _104
REMARK   40  A    between atoms: _104  and  _105
REMARK   41  A    between atoms: _104  and  _107
REMARK   42  A    between atoms: _107  and  _108
REMARK   43  A    between atoms: _114  and  _116
REMARK   44  A    between atoms: _116  and  _117
REMARK   45  A    between atoms: _119  and  _121
REMARK   46  A    between atoms: _121  and  _122
REMARK   47  A    between atoms: _124  and  _126
REMARK   48  A    between atoms: _126  and  _127
REMARK   49  A    between atoms: _130  and  _132
REMARK   50  A    between atoms: _132  and  _133
REMARK   51  A    between atoms: _132  and  _135
REMARK   52  A    between atoms: _135  and  _136
REMARK   53  A    between atoms: _136  and  _137
REMARK   54  A    between atoms: _137  and  _138
REMARK   55  A    between atoms: _138  and  _139
REMARK   56  A    between atoms: _143  and  _145
REMARK   57  A    between atoms: _145  and  _146
REMARK   58  A    between atoms: _145  and  _148
REMARK   59  A    between atoms: _148  and  _149
REMARK   60  A    between atoms: _149  and  _150
REMARK   61  A    between atoms: _152  and  _154
REMARK   62  A    between atoms: _154  and  _155
REMARK   63  A    between atoms: _154  and  _157
REMARK   64  A    between atoms: _157  and  _158
REMARK   65  A    between atoms: _163  and  _164
REMARK   66  A    between atoms: _166  and  _168
REMARK   67  A    between atoms: _168  and  _169
REMARK   68  A    between atoms: _168  and  _171
REMARK   69  A    between atoms: _171  and  _172
REMARK   70  A    between atoms: _175  and  _177
REMARK   71  A    between atoms: _177  and  _178
REMARK   72  A    between atoms: _177  and  _180
REMARK   73  A    between atoms: _180  and  _181
REMARK   74  A    between atoms: _187  and  _189
REMARK   75  A    between atoms: _189  and  _190
REMARK   76  A    between atoms: _189  and  _192
REMARK   77  A    between atoms: _192  and  _193
REMARK   78  A    between atoms: _198  and  _199
REMARK   79  A    between atoms: _201  and  _203
REMARK   80  A    between atoms: _203  and  _204
REMARK   81  A    between atoms: _206  and  _208
REMARK   82  A    between atoms: _208  and  _209
REMARK   83  A    between atoms: _211  and  _213
REMARK   84  A    between atoms: _213  and  _214
REMARK   85  A    between atoms: _213  and  _216
REMARK   86  A    between atoms: _216  and  _217
REMARK   87  A    between atoms: _227  and  _229
REMARK   88  A    between atoms: _229  and  _230
REMARK   89  A    between atoms: _229  and  _232
REMARK   90  A    between atoms: _232  and  _233
REMARK   91  A    between atoms: _238  and  _240
REMARK   92  A    between atoms: _240  and  _241
REMARK   93  A    between atoms: _240  and  _243
REMARK   94  A    between atoms: _243  and  _244
REMARK   95  A    between atoms: _249  and  _250
REMARK   96  A    between atoms: _252  and  _254
REMARK   97  A    between atoms: _254  and  _255
REMARK   98  A    between atoms: _254  and  _257
REMARK   99  A    between atoms: _257  and  _258
REMARK  100  A    between atoms: _263  and  _264
REMARK  101  A    between atoms: _266  and  _268
REMARK  102  A    between atoms: _268  and  _269
REMARK  103  A    between atoms: _268  and  _271
REMARK  104  A    between atoms: _271  and  _272
REMARK  105  A    between atoms: _272  and  _273
REMARK  106  A    between atoms: _273  and  _274
REMARK  107  A    between atoms: _283  and  _285
REMARK  108  A    between atoms: _285  and  _286
REMARK  109  A    between atoms: _285  and  _288
REMARK  110  A    between atoms: _288  and  _289
REMARK  111  A    between atoms: _289  and  _290
REMARK  112  A    between atoms: _290  and  _291
REMARK  113  A    between atoms: _291  and  _292
REMARK  114  A    between atoms: _296  and  _298
REMARK  115  A    between atoms: _298  and  _299
REMARK  116  A    between atoms: _298  and  _301
REMARK  117  A    between atoms: _301  and  _302
REMARK  118  A    between atoms: _302  and  _303
REMARK  119  A    between atoms: _306  and  _308
REMARK  120  A    between atoms: _308  and  _309
REMARK  121  A    between atoms: _308  and  _311
REMARK  122  A    between atoms: _314  and  _316
REMARK  123  A    between atoms: _316  and  _317
REMARK  124  A    between atoms: _316  and  _319
REMARK  125  A    between atoms: _319  and  _320
REMARK  126  A    between atoms: _330  and  _332
REMARK  127  A    between atoms: _332  and  _333
REMARK  128  A    between atoms: _332  and  _335
REMARK  129  A    between atoms: _335  and  _336
REMARK  130  A    between atoms: _336  and  _337
REMARK                            x       y       z     vdW  Elec       q    Type
REMARK                         _______ _______ _______ _____ _____    ______ ____
ROOT
ATOM      1  CA  GLU A   1      16.243   1.239  27.077  0.00  0.00    +0.134 C 
ENDROOT
BRANCH   1   2
ATOM      2  N   GLU A   1      15.034   2.002  26.802  0.00  0.00    -0.239 NA
ATOM      3  H   GLU A   1      14.818   2.234  25.811  0.00  0.00    +0.142 HD
ENDBRANCH   1   2
BRANCH   1   4
ATOM      4  C   GLU A   1      17.279   1.604  26.054  0.00  0.00    +0.224 C 
ATOM      5  O   GLU A   1      16.933   1.866  24.887  0.00  0.00    -0.287 OA
ENDBRANCH   1   4
BRANCH   1   6
ATOM      6  CB  GLU A   1      15.905  -0.242  26.952  0.00  0.00    +0.037 C 
BRANCH   6   7
ATOM      7  CG  GLU A   1      16.931  -1.163  27.525  0.00  0.00    +0.116 C 
BRANCH   7   8
ATOM      8  CD  GLU A   1      16.604  -2.615  27.234  0.00  0.00    +0.365 C 
ATOM      9  OE2 GLU A   1      15.392  -2.944  27.146  0.00  0.00    -0.246 OA
ATOM     10  OE1 GLU A   1      17.556  -3.417  27.090  0.00  0.00    -0.246 OA
ENDBRANCH   7   8
ENDBRANCH   6   7
ENDBRANCH   1   6
TORSDOF 5
REMARK  Name = ../refined-set-2016/3arw/3arw_pocket.pdb
REMARK  130 active torsions:
REMARK  status: ('A' for Active; 'I' for Inactive)
REMARK    1  A    between atoms: _1  and  _3
REMARK    2  A    between atoms: _3  and  _4
REMARK    3  A    between atoms: _3  and  _6
REMARK    4  A    between atoms: _6  and  _7
REMARK    5  A    between atoms: _17  and  _19
REMARK    6  A    between atoms: _19  and  _20
REMARK    7  A    between atoms: _19  and  _22
REMARK    8  A    between atoms: _22  and  _23
REMARK    9  A    between atoms: _29  and  _31
REMARK   10  A    between atoms: _31  and  _32
REMARK   11  A    between atoms: _31  and  _34
REMARK   12  A    between atoms: _34  and  _35
REMARK   13  A    between atoms: _37  and  _39
REMARK   14  A    between atoms: _39  and  _40
REMARK   15  A    between atoms: _39  and  _42
REMARK   16  A    between atoms: _42  and  _43
REMARK   17  A    between atoms: _45  and  _47
REMARK   18  A    between atoms: _47  and  _48
REMARK   19  A    between atoms: _47  and  _50
REMARK   20  A    between atoms: _53  and  _55
REMARK   21  A    between atoms: _55  and  _56
REMARK   22  A    between atoms: _58  and  _60
REMARK   23  A    between atoms: _60  and  _61
REMARK   24  A    between atoms: _60  and  _63
REMARK   25  A    between atoms: _63  and  _64
REMARK   26  A    between atoms: _74  and  _76
REMARK   27  A    between atoms: _76  and  _77
REMARK   28  A    between atoms: _76  and  _79
REMARK   29  A    between atoms: _79  and  _80
REMARK   30  A    between atoms: _83  and  _85
REMARK   31  A    between atoms: _85  and  _86
REMARK   32  A    between atoms: _85  and  _88
REMARK   33  A    between atoms: _88  and  _89
REMARK   34  A    between atoms: _92  and  _94
REMARK   35  A    between atoms: _94  and  _95
REMARK   36  A    between atoms: _94  and  _97
REMARK   37  A    between atoms: _97  and  _98
REMARK   38  A    between atoms: _98  and  _99
REMARK   39  A    between atoms: _102  and  _104
REMARK   40  A    between atoms: _104  and  _105
REMARK   41  A    between atoms: _104  and  _107
REMARK   42  A    between atoms: _107  and  _108
REMARK   43  A    between atoms: _114  and  _116
REMARK   44  A    between atoms: _116  and  _117
REMARK   45  A    between atoms: _119  and  _121
REMARK   46  A    between atoms: _121  and  _122
REMARK   47  A    between atoms: _124  and  _126
REMARK   48  A    between atoms: _126  and  _127
REMARK   49  A    between atoms: _130  and  _132
REMARK   50  A    between atoms: _132  and  _133
REMARK   51  A    between atoms: _132  and  _135
REMARK   52  A    between atoms: _135  and  _136
REMARK   53  A    between atoms: _136  and  _137
REMARK   54  A    between atoms: _137  and  _138
REMARK   55  A    between atoms: _138  and  _139
REMARK   56  A    between atoms: _143  and  _145
REMARK   57  A    between atoms: _145  and  _146
REMARK   58  A    between atoms: _145  and  _148
REMARK   59  A    between atoms: _148  and  _149
REMARK   60  A    between atoms: _149  and  _150
REMARK   61  A    between atoms: _152  and  _154
REMARK   62  A    between atoms: _154  and  _155
REMARK   63  A    between atoms: _154  and  _157
REMARK   64  A    between atoms: _157  and  _158
REMARK   65  A    between atoms: _163  and  _164
REMARK   66  A    between atoms: _166  and  _168
REMARK   67  A    between atoms: _168  and  _169
REMARK   68  A    between atoms: _168  and  _171
REMARK   69  A    between atoms: _171  and  _172
REMARK   70  A    between atoms: _175  and  _177
REMARK   71  A    between atoms: _177  and  _178
REMARK   72  A    between atoms: _177  and  _180
REMARK   73  A    between atoms: _180  and  _181
REMARK   74  A    between atoms: _187  and  _189
REMARK   75  A    between atoms: _189  and  _190
REMARK   76  A    between atoms: _189  and  _192
REMARK   77  A    between atoms: _192  and  _193
REMARK   78  A    between atoms: _198  and  _199
REMARK   79  A    between atoms: _201  and  _203
REMARK   80  A    between atoms: _203  and  _204
REMARK   81  A    between atoms: _206  and  _208
REMARK   82  A    between atoms: _208  and  _209
REMARK   83  A    between atoms: _211  and  _213
REMARK   84  A    between atoms: _213  and  _214
REMARK   85  A    between atoms: _213  and  _216
REMARK   86  A    between atoms: _216  and  _217
REMARK   87  A    between atoms: _227  and  _229
REMARK   88  A    between atoms: _229  and  _230
REMARK   89  A    between atoms: _229  and  _232
REMARK   90  A    between atoms: _232  and  _233
REMARK   91  A    between atoms: _238  and  _240
REMARK   92  A    between atoms: _240  and  _241
REMARK   93  A    between atoms: _240  and  _243
REMARK   94  A    between atoms: _243  and  _244
REMARK   95  A    between atoms: _249  and  _250
REMARK   96  A    between atoms: _252  and  _254
REMARK   97  A    between atoms: _254  and  _255
REMARK   98  A    between atoms: _254  and  _257
REMARK   99  A    between atoms: _257  and  _258
REMARK  100  A    between atoms: _263  and  _264
REMARK  101  A    between atoms: _266  and  _268
REMARK  102  A    between atoms: _268  and  _269
REMARK  103  A    between atoms: _268  and  _271
REMARK  104  A    between atoms: _271  and  _272
REMARK  105  A    between atoms: _272  and  _273
REMARK  106  A    between atoms: _273  and  _274
REMARK  107  A    between atoms: _283  and  _285
REMARK  108  A    between atoms: _285  and  _286
REMARK  109  A    between atoms: _285  and  _288
REMARK  110  A    between atoms: _288  and  _289
REMARK  111  A    between atoms: _289  and  _290
REMARK  112  A    between atoms: _290  and  _291
REMARK  113  A    between atoms: _291  and  _292
REMARK  114  A    between atoms: _296  and  _298
REMARK  115  A    between atoms: _298  and  _299
REMARK  116  A    between atoms: _298  and  _301
REMARK  117  A    between atoms: _301  and  _302
REMARK  118  A    between atoms: _302  and  _303
REMARK  119  A    between atoms: _306  and  _308
REMARK  120  A    between atoms: _308  and  _309
REMARK  121  A    between atoms: _308  and  _311
REMARK  122  A    between atoms: _314  and  _316
REMARK  123  A    between atoms: _316  and  _317
REMARK  124  A    between atoms: _316  and  _319
REMARK  125  A    between atoms: _319  and  _320
REMARK  126  A    between atoms: _330  and  _332
REMARK  127  A    between atoms: _332  and  _333
REMARK  128  A    between atoms: _332  and  _335
REMARK  129  A    between atoms: _335  and  _336
REMARK  130  A    between atoms: _336  and  _337
REMARK                            x       y       z     vdW  Elec       q    Type
REMARK                         _______ _______ _______ _____ _____    ______ ____
ROOT
ATOM      1  CA  VAL A   1      15.794   0.940  21.242  0.00  0.00    +0.133 C 
ENDROOT
BRANCH   1   2
ATOM      2  CB  VAL A   1      15.067  -0.132  22.042  0.00  0.00    +0.023 C 
ATOM      3  CG2 VAL A   1      15.988  -1.393  22.135  0.00  0.00    +0.002 C 
ATOM      4  CG1 VAL A   1      13.741  -0.584  21.425  0.00  0.00    +0.002 C 
ENDBRANCH   1   2
BRANCH   1   5
ATOM      5  N   VAL A   1      17.203   1.251  21.766  0.00  0.00    -0.239 NA
ATOM      6  H   VAL A   1      17.334   1.895  22.572  0.00  0.00    +0.142 HD
ENDBRANCH   1   5
BRANCH   1   7
ATOM      7  C   VAL A   1      15.030   2.271  21.375  0.00  0.00    +0.224 C 
ATOM      8  O   VAL A   1      15.054   2.926  22.382  0.00  0.00    -0.287 OA
ENDBRANCH   1   7
TORSDOF 3
REMARK  Name = ../refined-set-2016/3arw/3arw_pocket.pdb
REMARK  130 active torsions:
REMARK  status: ('A' for Active; 'I' for Inactive)
REMARK    1  A    between atoms: _1  and  _3
REMARK    2  A    between atoms: _3  and  _4
REMARK    3  A    between atoms: _3  and  _6
REMARK    4  A    between atoms: _6  and  _7
REMARK    5  A    between atoms: _17  and  _19
REMARK    6  A    between atoms: _19  and  _20
REMARK    7  A    between atoms: _19  and  _22
REMARK    8  A    between atoms: _22  and  _23
REMARK    9  A    between atoms: _29  and  _31
REMARK   10  A    between atoms: _31  and  _32
REMARK   11  A    between atoms: _31  and  _34
REMARK   12  A    between atoms: _34  and  _35
REMARK   13  A    between atoms: _37  and  _39
REMARK   14  A    between atoms: _39  and  _40
REMARK   15  A    between atoms: _39  and  _42
REMARK   16  A    between atoms: _42  and  _43
REMARK   17  A    between atoms: _45  and  _47
REMARK   18  A    between atoms: _47  and  _48
REMARK   19  A    between atoms: _47  and  _50
REMARK   20  A    between atoms: _53  and  _55
REMARK   21  A    between atoms: _55  and  _56
REMARK   22  A    between atoms: _58  and  _60
REMARK   23  A    between atoms: _60  and  _61
REMARK   24  A    between atoms: _60  and  _63
REMARK   25  A    between atoms: _63  and  _64
REMARK   26  A    between atoms: _74  and  _76
REMARK   27  A    between atoms: _76  and  _77
REMARK   28  A    between atoms: _76  and  _79
REMARK   29  A    between atoms: _79  and  _80
REMARK   30  A    between atoms: _83  and  _85
REMARK   31  A    between atoms: _85  and  _86
REMARK   32  A    between atoms: _85  and  _88
REMARK   33  A    between atoms: _88  and  _89
REMARK   34  A    between atoms: _92  and  _94
REMARK   35  A    between atoms: _94  and  _95
REMARK   36  A    between atoms: _94  and  _97
REMARK   37  A    between atoms: _97  and  _98
REMARK   38  A    between atoms: _98  and  _99
REMARK   39  A    between atoms: _102  and  _104
REMARK   40  A    between atoms: _104  and  _105
REMARK   41  A    between atoms: _104  and  _107
REMARK   42  A    between atoms: _107  and  _108
REMARK   43  A    between atoms: _114  and  _116
REMARK   44  A    between atoms: _116  and  _117
REMARK   45  A    between atoms: _119  and  _121
REMARK   46  A    between atoms: _121  and  _122
REMARK   47  A    between atoms: _124  and  _126
REMARK   48  A    between atoms: _126  and  _127
REMARK   49  A    between atoms: _130  and  _132
REMARK   50  A    between atoms: _132  and  _133
REMARK   51  A    between atoms: _132  and  _135
REMARK   52  A    between atoms: _135  and  _136
REMARK   53  A    between atoms: _136  and  _137
REMARK   54  A    between atoms: _137  and  _138
REMARK   55  A    between atoms: _138  and  _139
REMARK   56  A    between atoms: _143  and  _145
REMARK   57  A    between atoms: _145  and  _146
REMARK   58  A    between atoms: _145  and  _148
REMARK   59  A    between atoms: _148  and  _149
REMARK   60  A    between atoms: _149  and  _150
REMARK   61  A    between atoms: _152  and  _154
REMARK   62  A    between atoms: _154  and  _155
REMARK   63  A    between atoms: _154  and  _157
REMARK   64  A    between atoms: _157  and  _158
REMARK   65  A    between atoms: _163  and  _164
REMARK   66  A    between atoms: _166  and  _168
REMARK   67  A    between atoms: _168  and  _169
REMARK   68  A    between atoms: _168  and  _171
REMARK   69  A    between atoms: _171  and  _172
REMARK   70  A    between atoms: _175  and  _177
REMARK   71  A    between atoms: _177  and  _178
REMARK   72  A    between atoms: _177  and  _180
REMARK   73  A    between atoms: _180  and  _181
REMARK   74  A    between atoms: _187  and  _189
REMARK   75  A    between atoms: _189  and  _190
REMARK   76  A    between atoms: _189  and  _192
REMARK   77  A    between atoms: _192  and  _193
REMARK   78  A    between atoms: _198  and  _199
REMARK   79  A    between atoms: _201  and  _203
REMARK   80  A    between atoms: _203  and  _204
REMARK   81  A    between atoms: _206  and  _208
REMARK   82  A    between atoms: _208  and  _209
REMARK   83  A    between atoms: _211  and  _213
REMARK   84  A    between atoms: _213  and  _214
REMARK   85  A    between atoms: _213  and  _216
REMARK   86  A    between atoms: _216  and  _217
REMARK   87  A    between atoms: _227  and  _229
REMARK   88  A    between atoms: _229  and  _230
REMARK   89  A    between atoms: _229  and  _232
REMARK   90  A    between atoms: _232  and  _233
REMARK   91  A    between atoms: _238  and  _240
REMARK   92  A    between atoms: _240  and  _241
REMARK   93  A    between atoms: _240  and  _243
REMARK   94  A    between atoms: _243  and  _244
REMARK   95  A    between atoms: _249  and  _250
REMARK   96  A    between atoms: _252  and  _254
REMARK   97  A    between atoms: _254  and  _255
REMARK   98  A    between atoms: _254  and  _257
REMARK   99  A    between atoms: _257  and  _258
REMARK  100  A    between atoms: _263  and  _264
REMARK  101  A    between atoms: _266  and  _268
REMARK  102  A    between atoms: _268  and  _269
REMARK  103  A    between atoms: _268  and  _271
REMARK  104  A    between atoms: _271  and  _272
REMARK  105  A    between atoms: _272  and  _273
REMARK  106  A    between atoms: _273  and  _274
REMARK  107  A    between atoms: _283  and  _285
REMARK  108  A    between atoms: _285  and  _286
REMARK  109  A    between atoms: _285  and  _288
REMARK  110  A    between atoms: _288  and  _289
REMARK  111  A    between atoms: _289  and  _290
REMARK  112  A    between atoms: _290  and  _291
REMARK  113  A    between atoms: _291  and  _292
REMARK  114  A    between atoms: _296  and  _298
REMARK  115  A    between atoms: _298  and  _299
REMARK  116  A    between atoms: _298  and  _301
REMARK  117  A    between atoms: _301  and  _302
REMARK  118  A    between atoms: _302  and  _303
REMARK  119  A    between atoms: _306  and  _308
REMARK  120  A    between atoms: _308  and  _309
REMARK  121  A    between atoms: _308  and  _311
REMARK  122  A    between atoms: _314  and  _316
REMARK  123  A    between atoms: _316  and  _317
REMARK  124  A    between atoms: _316  and  _319
REMARK  125  A    between atoms: _319  and  _320
REMARK  126  A    between atoms: _330  and  _332
REMARK  127  A    between atoms: _332  and  _333
REMARK  128  A    between atoms: _332  and  _335
REMARK  129  A    between atoms: _335  and  _336
REMARK  130  A    between atoms: _336  and  _337
REMARK                            x       y       z     vdW  Elec       q    Type
REMARK                         _______ _______ _______ _____ _____    ______ ____
ROOT
ATOM      1  CA  TRP A   1       5.225  -5.037  18.253  0.00  0.00    +0.149 C 
ENDROOT
BRANCH   1   2
ATOM      2  C   TRP A   1       5.748  -3.581  18.237  0.00  0.00    +0.239 C 
ATOM      3  N   GLU A   2       5.324  -2.690  19.139  0.00  0.00    -0.298 N 
ATOM      4  H   GLU A   2       5.817  -1.774  19.130  0.00  0.00    +0.150 HD
ATOM      5  O   TRP A   1       6.542  -3.236  17.414  0.00  0.00    -0.274 OA
BRANCH   3   6
ATOM      6  CA  GLU A   2       4.241  -2.826  20.158  0.00  0.00    +0.137 C 
BRANCH   6   7
ATOM      7  C   GLU A   2       3.374  -1.566  19.952  0.00  0.00    +0.227 C 
ATOM      8  O   GLU A   2       3.930  -0.489  19.632  0.00  0.00    -0.286 OA
ENDBRANCH   6   7
BRANCH   6   9
ATOM      9  CB  GLU A   2       4.768  -2.874  21.656  0.00  0.00    +0.039 C 
BRANCH   9  10
ATOM     10  CG  GLU A   2       5.712  -1.675  21.958  0.00  0.00    +0.116 C 
BRANCH  10  11
ATOM     11  CD  GLU A   2       6.400  -1.867  23.374  0.00  0.00    +0.365 C 
ATOM     12  OE2 GLU A   2       5.717  -1.580  24.380  0.00  0.00    -0.246 OA
ATOM     13  OE1 GLU A   2       7.542  -2.317  23.459  0.00  0.00    -0.246 OA
ENDBRANCH  10  11
ENDBRANCH   9  10
ENDBRANCH   6   9
ENDBRANCH   3   6
ENDBRANCH   1   2
BRANCH   1  14
ATOM     14  N   TRP A   1       4.827  -5.251  16.876  0.00  0.00    -0.238 NA
ATOM     15  H   TRP A   1       5.546  -5.185  16.128  0.00  0.00    +0.142 HD
ENDBRANCH   1  14
BRANCH   1  16
ATOM     16  CB  TRP A   1       6.400  -5.992  18.607  0.00  0.00    +0.054 C 
BRANCH  16  17
ATOM     17  CG  TRP A   1       6.992  -5.629  19.880  0.00  0.00    -0.002 A 
ATOM     18  CD2 TRP A   1       6.606  -6.128  21.195  0.00  0.00    +0.013 A 
ATOM     19  CE2 TRP A   1       7.398  -5.465  22.131  0.00  0.00    +0.056 A 
ATOM     20  CZ2 TRP A   1       7.290  -5.706  23.548  0.00  0.00    +0.017 A 
ATOM     21  CH2 TRP A   1       6.390  -6.623  23.959  0.00  0.00    +0.001 A 
ATOM     22  CZ3 TRP A   1       5.587  -7.312  23.072  0.00  0.00    +0.000 A 
ATOM     23  NE1 TRP A   1       8.221  -4.622  21.444  0.00  0.00    -0.352 N 
ATOM     24  HE1 TRP A   1       8.925  -3.992  21.878  0.00  0.00    +0.166 HD
ATOM     25  CE3 TRP A   1       5.689  -7.085  21.642  0.00  0.00    +0.001 A 
ATOM     26  CD1 TRP A   1       7.984  -4.727  20.090  0.00  0.00    +0.068 A 
ENDBRANCH  16  17
ENDBRANCH   1  16
TORSDOF 9
REMARK  Name = ../refined-set-2016/3arw/3arw_pocket.pdb
REMARK  130 active torsions:
REMARK  status: ('A' for Active; 'I' for Inactive)
REMARK    1  A    between atoms: _1  and  _3
REMARK    2  A    between atoms: _3  and  _4
REMARK    3  A    between atoms: _3  and  _6
REMARK    4  A    between atoms: _6  and  _7
REMARK    5  A    between atoms: _17  and  _19
REMARK    6  A    between atoms: _19  and  _20
REMARK    7  A    between atoms: _19  and  _22
REMARK    8  A    between atoms: _22  and  _23
REMARK    9  A    between atoms: _29  and  _31
REMARK   10  A    between atoms: _31  and  _32
REMARK   11  A    between atoms: _31  and  _34
REMARK   12  A    between atoms: _34  and  _35
REMARK   13  A    between atoms: _37  and  _39
REMARK   14  A    between atoms: _39  and  _40
REMARK   15  A    between atoms: _39  and  _42
REMARK   16  A    between atoms: _42  and  _43
REMARK   17  A    between atoms: _45  and  _47
REMARK   18  A    between atoms: _47  and  _48
REMARK   19  A    between atoms: _47  and  _50
REMARK   20  A    between atoms: _53  and  _55
REMARK   21  A    between atoms: _55  and  _56
REMARK   22  A    between atoms: _58  and  _60
REMARK   23  A    between atoms: _60  and  _61
REMARK   24  A    between atoms: _60  and  _63
REMARK   25  A    between atoms: _63  and  _64
REMARK   26  A    between atoms: _74  and  _76
REMARK   27  A    between atoms: _76  and  _77
REMARK   28  A    between atoms: _76  and  _79
REMARK   29  A    between atoms: _79  and  _80
REMARK   30  A    between atoms: _83  and  _85
REMARK   31  A    between atoms: _85  and  _86
REMARK   32  A    between atoms: _85  and  _88
REMARK   33  A    between atoms: _88  and  _89
REMARK   34  A    between atoms: _92  and  _94
REMARK   35  A    between atoms: _94  and  _95
REMARK   36  A    between atoms: _94  and  _97
REMARK   37  A    between atoms: _97  and  _98
REMARK   38  A    between atoms: _98  and  _99
REMARK   39  A    between atoms: _102  and  _104
REMARK   40  A    between atoms: _104  and  _105
REMARK   41  A    between atoms: _104  and  _107
REMARK   42  A    between atoms: _107  and  _108
REMARK   43  A    between atoms: _114  and  _116
REMARK   44  A    between atoms: _116  and  _117
REMARK   45  A    between atoms: _119  and  _121
REMARK   46  A    between atoms: _121  and  _122
REMARK   47  A    between atoms: _124  and  _126
REMARK   48  A    between atoms: _126  and  _127
REMARK   49  A    between atoms: _130  and  _132
REMARK   50  A    between atoms: _132  and  _133
REMARK   51  A    between atoms: _132  and  _135
REMARK   52  A    between atoms: _135  and  _136
REMARK   53  A    between atoms: _136  and  _137
REMARK   54  A    between atoms: _137  and  _138
REMARK   55  A    between atoms: _138  and  _139
REMARK   56  A    between atoms: _143  and  _145
REMARK   57  A    between atoms: _145  and  _146
REMARK   58  A    between atoms: _145  and  _148
REMARK   59  A    between atoms: _148  and  _149
REMARK   60  A    between atoms: _149  and  _150
REMARK   61  A    between atoms: _152  and  _154
REMARK   62  A    between atoms: _154  and  _155
REMARK   63  A    between atoms: _154  and  _157
REMARK   64  A    between atoms: _157  and  _158
REMARK   65  A    between atoms: _163  and  _164
REMARK   66  A    between atoms: _166  and  _168
REMARK   67  A    between atoms: _168  and  _169
REMARK   68  A    between atoms: _168  and  _171
REMARK   69  A    between atoms: _171  and  _172
REMARK   70  A    between atoms: _175  and  _177
REMARK   71  A    between atoms: _177  and  _178
REMARK   72  A    between atoms: _177  and  _180
REMARK   73  A    between atoms: _180  and  _181
REMARK   74  A    between atoms: _187  and  _189
REMARK   75  A    between atoms: _189  and  _190
REMARK   76  A    between atoms: _189  and  _192
REMARK   77  A    between atoms: _192  and  _193
REMARK   78  A    between atoms: _198  and  _199
REMARK   79  A    between atoms: _201  and  _203
REMARK   80  A    between atoms: _203  and  _204
REMARK   81  A    between atoms: _206  and  _208
REMARK   82  A    between atoms: _208  and  _209
REMARK   83  A    between atoms: _211  and  _213
REMARK   84  A    between atoms: _213  and  _214
REMARK   85  A    between atoms: _213  and  _216
REMARK   86  A    between atoms: _216  and  _217
REMARK   87  A    between atoms: _227  and  _229
REMARK   88  A    between atoms: _229  and  _230
REMARK   89  A    between atoms: _229  and  _232
REMARK   90  A    between atoms: _232  and  _233
REMARK   91  A    between atoms: _238  and  _240
REMARK   92  A    between atoms: _240  and  _241
REMARK   93  A    between atoms: _240  and  _243
REMARK   94  A    between atoms: _243  and  _244
REMARK   95  A    between atoms: _249  and  _250
REMARK   96  A    between atoms: _252  and  _254
REMARK   97  A    between atoms: _254  and  _255
REMARK   98  A    between atoms: _254  and  _257
REMARK   99  A    between atoms: _257  and  _258
REMARK  100  A    between atoms: _263  and  _264
REMARK  101  A    between atoms: _266  and  _268
REMARK  102  A    between atoms: _268  and  _269
REMARK  103  A    between atoms: _268  and  _271
REMARK  104  A    between atoms: _271  and  _272
REMARK  105  A    between atoms: _272  and  _273
REMARK  106  A    between atoms: _273  and  _274
REMARK  107  A    between atoms: _283  and  _285
REMARK  108  A    between atoms: _285  and  _286
REMARK  109  A    between atoms: _285  and  _288
REMARK  110  A    between atoms: _288  and  _289
REMARK  111  A    between atoms: _289  and  _290
REMARK  112  A    between atoms: _290  and  _291
REMARK  113  A    between atoms: _291  and  _292
REMARK  114  A    between atoms: _296  and  _298
REMARK  115  A    between atoms: _298  and  _299
REMARK  116  A    between atoms: _298  and  _301
REMARK  117  A    between atoms: _301  and  _302
REMARK  118  A    between atoms: _302  and  _303
REMARK  119  A    between atoms: _306  and  _308
REMARK  120  A    between atoms: _308  and  _309
REMARK  121  A    between atoms: _308  and  _311
REMARK  122  A    between atoms: _314  and  _316
REMARK  123  A    between atoms: _316  and  _317
REMARK  124  A    between atoms: _316  and  _319
REMARK  125  A    between atoms: _319  and  _320
REMARK  126  A    between atoms: _330  and  _332
REMARK  127  A    between atoms: _332  and  _333
REMARK  128  A    between atoms: _332  and  _335
REMARK  129  A    between atoms: _335  and  _336
REMARK  130  A    between atoms: _336  and  _337
REMARK                            x       y       z     vdW  Elec       q    Type
REMARK                         _______ _______ _______ _____ _____    ______ ____
ROOT
ATOM      1  O   HOH     1      19.035  -2.453  20.182  0.00  0.00    +0.000 OA
ENDROOT
TORSDOF 0
REMARK  Name = ../refined-set-2016/3arw/3arw_pocket.pdb
REMARK  130 active torsions:
REMARK  status: ('A' for Active; 'I' for Inactive)
REMARK    1  A    between atoms: _1  and  _3
REMARK    2  A    between atoms: _3  and  _4
REMARK    3  A    between atoms: _3  and  _6
REMARK    4  A    between atoms: _6  and  _7
REMARK    5  A    between atoms: _17  and  _19
REMARK    6  A    between atoms: _19  and  _20
REMARK    7  A    between atoms: _19  and  _22
REMARK    8  A    between atoms: _22  and  _23
REMARK    9  A    between atoms: _29  and  _31
REMARK   10  A    between atoms: _31  and  _32
REMARK   11  A    between atoms: _31  and  _34
REMARK   12  A    between atoms: _34  and  _35
REMARK   13  A    between atoms: _37  and  _39
REMARK   14  A    between atoms: _39  and  _40
REMARK   15  A    between atoms: _39  and  _42
REMARK   16  A    between atoms: _42  and  _43
REMARK   17  A    between atoms: _45  and  _47
REMARK   18  A    between atoms: _47  and  _48
REMARK   19  A    between atoms: _47  and  _50
REMARK   20  A    between atoms: _53  and  _55
REMARK   21  A    between atoms: _55  and  _56
REMARK   22  A    between atoms: _58  and  _60
REMARK   23  A    between atoms: _60  and  _61
REMARK   24  A    between atoms: _60  and  _63
REMARK   25  A    between atoms: _63  and  _64
REMARK   26  A    between atoms: _74  and  _76
REMARK   27  A    between atoms: _76  and  _77
REMARK   28  A    between atoms: _76  and  _79
REMARK   29  A    between atoms: _79  and  _80
REMARK   30  A    between atoms: _83  and  _85
REMARK   31  A    between atoms: _85  and  _86
REMARK   32  A    between atoms: _85  and  _88
REMARK   33  A    between atoms: _88  and  _89
REMARK   34  A    between atoms: _92  and  _94
REMARK   35  A    between atoms: _94  and  _95
REMARK   36  A    between atoms: _94  and  _97
REMARK   37  A    between atoms: _97  and  _98
REMARK   38  A    between atoms: _98  and  _99
REMARK   39  A    between atoms: _102  and  _104
REMARK   40  A    between atoms: _104  and  _105
REMARK   41  A    between atoms: _104  and  _107
REMARK   42  A    between atoms: _107  and  _108
REMARK   43  A    between atoms: _114  and  _116
REMARK   44  A    between atoms: _116  and  _117
REMARK   45  A    between atoms: _119  and  _121
REMARK   46  A    between atoms: _121  and  _122
REMARK   47  A    between atoms: _124  and  _126
REMARK   48  A    between atoms: _126  and  _127
REMARK   49  A    between atoms: _130  and  _132
REMARK   50  A    between atoms: _132  and  _133
REMARK   51  A    between atoms: _132  and  _135
REMARK   52  A    between atoms: _135  and  _136
REMARK   53  A    between atoms: _136  and  _137
REMARK   54  A    between atoms: _137  and  _138
REMARK   55  A    between atoms: _138  and  _139
REMARK   56  A    between atoms: _143  and  _145
REMARK   57  A    between atoms: _145  and  _146
REMARK   58  A    between atoms: _145  and  _148
REMARK   59  A    between atoms: _148  and  _149
REMARK   60  A    between atoms: _149  and  _150
REMARK   61  A    between atoms: _152  and  _154
REMARK   62  A    between atoms: _154  and  _155
REMARK   63  A    between atoms: _154  and  _157
REMARK   64  A    between atoms: _157  and  _158
REMARK   65  A    between atoms: _163  and  _164
REMARK   66  A    between atoms: _166  and  _168
REMARK   67  A    between atoms: _168  and  _169
REMARK   68  A    between atoms: _168  and  _171
REMARK   69  A    between atoms: _171  and  _172
REMARK   70  A    between atoms: _175  and  _177
REMARK   71  A    between atoms: _177  and  _178
REMARK   72  A    between atoms: _177  and  _180
REMARK   73  A    between atoms: _180  and  _181
REMARK   74  A    between atoms: _187  and  _189
REMARK   75  A    between atoms: _189  and  _190
REMARK   76  A    between atoms: _189  and  _192
REMARK   77  A    between atoms: _192  and  _193
REMARK   78  A    between atoms: _198  and  _199
REMARK   79  A    between atoms: _201  and  _203
REMARK   80  A    between atoms: _203  and  _204
REMARK   81  A    between atoms: _206  and  _208
REMARK   82  A    between atoms: _208  and  _209
REMARK   83  A    between atoms: _211  and  _213
REMARK   84  A    between atoms: _213  and  _214
REMARK   85  A    between atoms: _213  and  _216
REMARK   86  A    between atoms: _216  and  _217
REMARK   87  A    between atoms: _227  and  _229
REMARK   88  A    between atoms: _229  and  _230
REMARK   89  A    between atoms: _229  and  _232
REMARK   90  A    between atoms: _232  and  _233
REMARK   91  A    between atoms: _238  and  _240
REMARK   92  A    between atoms: _240  and  _241
REMARK   93  A    between atoms: _240  and  _243
REMARK   94  A    between atoms: _243  and  _244
REMARK   95  A    between atoms: _249  and  _250
REMARK   96  A    between atoms: _252  and  _254
REMARK   97  A    between atoms: _254  and  _255
REMARK   98  A    between atoms: _254  and  _257
REMARK   99  A    between atoms: _257  and  _258
REMARK  100  A    between atoms: _263  and  _264
REMARK  101  A    between atoms: _266  and  _268
REMARK  102  A    between atoms: _268  and  _269
REMARK  103  A    between atoms: _268  and  _271
REMARK  104  A    between atoms: _271  and  _272
REMARK  105  A    between atoms: _272  and  _273
REMARK  106  A    between atoms: _273  and  _274
REMARK  107  A    between atoms: _283  and  _285
REMARK  108  A    between atoms: _285  and  _286
REMARK  109  A    between atoms: _285  and  _288
REMARK  110  A    between atoms: _288  and  _289
REMARK  111  A    between atoms: _289  and  _290
REMARK  112  A    between atoms: _290  and  _291
REMARK  113  A    between atoms: _291  and  _292
REMARK  114  A    between atoms: _296  and  _298
REMARK  115  A    between atoms: _298  and  _299
REMARK  116  A    between atoms: _298  and  _301
REMARK  117  A    between atoms: _301  and  _302
REMARK  118  A    between atoms: _302  and  _303
REMARK  119  A    between atoms: _306  and  _308
REMARK  120  A    between atoms: _308  and  _309
REMARK  121  A    between atoms: _308  and  _311
REMARK  122  A    between atoms: _314  and  _316
REMARK  123  A    between atoms: _316  and  _317
REMARK  124  A    between atoms: _316  and  _319
REMARK  125  A    between atoms: _319  and  _320
REMARK  126  A    between atoms: _330  and  _332
REMARK  127  A    between atoms: _332  and  _333
REMARK  128  A    between atoms: _332  and  _335
REMARK  129  A    between atoms: _335  and  _336
REMARK  130  A    between atoms: _336  and  _337
REMARK                            x       y       z     vdW  Elec       q    Type
REMARK                         _______ _______ _______ _____ _____    ______ ____
ROOT
ATOM      1  O   HOH     1      25.719  -6.194  24.630  0.00  0.00    +0.000 OA
ENDROOT
TORSDOF 0
REMARK  Name = ../refined-set-2016/3arw/3arw_pocket.pdb
REMARK  130 active torsions:
REMARK  status: ('A' for Active; 'I' for Inactive)
REMARK    1  A    between atoms: _1  and  _3
REMARK    2  A    between atoms: _3  and  _4
REMARK    3  A    between atoms: _3  and  _6
REMARK    4  A    between atoms: _6  and  _7
REMARK    5  A    between atoms: _17  and  _19
REMARK    6  A    between atoms: _19  and  _20
REMARK    7  A    between atoms: _19  and  _22
REMARK    8  A    between atoms: _22  and  _23
REMARK    9  A    between atoms: _29  and  _31
REMARK   10  A    between atoms: _31  and  _32
REMARK   11  A    between atoms: _31  and  _34
REMARK   12  A    between atoms: _34  and  _35
REMARK   13  A    between atoms: _37  and  _39
REMARK   14  A    between atoms: _39  and  _40
REMARK   15  A    between atoms: _39  and  _42
REMARK   16  A    between atoms: _42  and  _43
REMARK   17  A    between atoms: _45  and  _47
REMARK   18  A    between atoms: _47  and  _48
REMARK   19  A    between atoms: _47  and  _50
REMARK   20  A    between atoms: _53  and  _55
REMARK   21  A    between atoms: _55  and  _56
REMARK   22  A    between atoms: _58  and  _60
REMARK   23  A    between atoms: _60  and  _61
REMARK   24  A    between atoms: _60  and  _63
REMARK   25  A    between atoms: _63  and  _64
REMARK   26  A    between atoms: _74  and  _76
REMARK   27  A    between atoms: _76  and  _77
REMARK   28  A    between atoms: _76  and  _79
REMARK   29  A    between atoms: _79  and  _80
REMARK   30  A    between atoms: _83  and  _85
REMARK   31  A    between atoms: _85  and  _86
REMARK   32  A    between atoms: _85  and  _88
REMARK   33  A    between atoms: _88  and  _89
REMARK   34  A    between atoms: _92  and  _94
REMARK   35  A    between atoms: _94  and  _95
REMARK   36  A    between atoms: _94  and  _97
REMARK   37  A    between atoms: _97  and  _98
REMARK   38  A    between atoms: _98  and  _99
REMARK   39  A    between atoms: _102  and  _104
REMARK   40  A    between atoms: _104  and  _105
REMARK   41  A    between atoms: _104  and  _107
REMARK   42  A    between atoms: _107  and  _108
REMARK   43  A    between atoms: _114  and  _116
REMARK   44  A    between atoms: _116  and  _117
REMARK   45  A    between atoms: _119  and  _121
REMARK   46  A    between atoms: _121  and  _122
REMARK   47  A    between atoms: _124  and  _126
REMARK   48  A    between atoms: _126  and  _127
REMARK   49  A    between atoms: _130  and  _132
REMARK   50  A    between atoms: _132  and  _133
REMARK   51  A    between atoms: _132  and  _135
REMARK   52  A    between atoms: _135  and  _136
REMARK   53  A    between atoms: _136  and  _137
REMARK   54  A    between atoms: _137  and  _138
REMARK   55  A    between atoms: _138  and  _139
REMARK   56  A    between atoms: _143  and  _145
REMARK   57  A    between atoms: _145  and  _146
REMARK   58  A    between atoms: _145  and  _148
REMARK   59  A    between atoms: _148  and  _149
REMARK   60  A    between atoms: _149  and  _150
REMARK   61  A    between atoms: _152  and  _154
REMARK   62  A    between atoms: _154  and  _155
REMARK   63  A    between atoms: _154  and  _157
REMARK   64  A    between atoms: _157  and  _158
REMARK   65  A    between atoms: _163  and  _164
REMARK   66  A    between atoms: _166  and  _168
REMARK   67  A    between atoms: _168  and  _169
REMARK   68  A    between atoms: _168  and  _171
REMARK   69  A    between atoms: _171  and  _172
REMARK   70  A    between atoms: _175  and  _177
REMARK   71  A    between atoms: _177  and  _178
REMARK   72  A    between atoms: _177  and  _180
REMARK   73  A    between atoms: _180  and  _181
REMARK   74  A    between atoms: _187  and  _189
REMARK   75  A    between atoms: _189  and  _190
REMARK   76  A    between atoms: _189  and  _192
REMARK   77  A    between atoms: _192  and  _193
REMARK   78  A    between atoms: _198  and  _199
REMARK   79  A    between atoms: _201  and  _203
REMARK   80  A    between atoms: _203  and  _204
REMARK   81  A    between atoms: _206  and  _208
REMARK   82  A    between atoms: _208  and  _209
REMARK   83  A    between atoms: _211  and  _213
REMARK   84  A    between atoms: _213  and  _214
REMARK   85  A    between atoms: _213  and  _216
REMARK   86  A    between atoms: _216  and  _217
REMARK   87  A    between atoms: _227  and  _229
REMARK   88  A    between atoms: _229  and  _230
REMARK   89  A    between atoms: _229  and  _232
REMARK   90  A    between atoms: _232  and  _233
REMARK   91  A    between atoms: _238  and  _240
REMARK   92  A    between atoms: _240  and  _241
REMARK   93  A    between atoms: _240  and  _243
REMARK   94  A    between atoms: _243  and  _244
REMARK   95  A    between atoms: _249  and  _250
REMARK   96  A    between atoms: _252  and  _254
REMARK   97  A    between atoms: _254  and  _255
REMARK   98  A    between atoms: _254  and  _257
REMARK   99  A    between atoms: _257  and  _258
REMARK  100  A    between atoms: _263  and  _264
REMARK  101  A    between atoms: _266  and  _268
REMARK  102  A    between atoms: _268  and  _269
REMARK  103  A    between atoms: _268  and  _271
REMARK  104  A    between atoms: _271  and  _272
REMARK  105  A    between atoms: _272  and  _273
REMARK  106  A    between atoms: _273  and  _274
REMARK  107  A    between atoms: _283  and  _285
REMARK  108  A    between atoms: _285  and  _286
REMARK  109  A    between atoms: _285  and  _288
REMARK  110  A    between atoms: _288  and  _289
REMARK  111  A    between atoms: _289  and  _290
REMARK  112  A    between atoms: _290  and  _291
REMARK  113  A    between atoms: _291  and  _292
REMARK  114  A    between atoms: _296  and  _298
REMARK  115  A    between atoms: _298  and  _299
REMARK  116  A    between atoms: _298  and  _301
REMARK  117  A    between atoms: _301  and  _302
REMARK  118  A    between atoms: _302  and  _303
REMARK  119  A    between atoms: _306  and  _308
REMARK  120  A    between atoms: _308  and  _309
REMARK  121  A    between atoms: _308  and  _311
REMARK  122  A    between atoms: _314  and  _316
REMARK  123  A    between atoms: _316  and  _317
REMARK  124  A    between atoms: _316  and  _319
REMARK  125  A    between atoms: _319  and  _320
REMARK  126  A    between atoms: _330  and  _332
REMARK  127  A    between atoms: _332  and  _333
REMARK  128  A    between atoms: _332  and  _335
REMARK  129  A    between atoms: _335  and  _336
REMARK  130  A    between atoms: _336  and  _337
REMARK                            x       y       z     vdW  Elec       q    Type
REMARK                         _______ _______ _______ _____ _____    ______ ____
ROOT
ATOM      1  O   HOH     1       9.801  -7.467  28.014  0.00  0.00    +0.000 OA
ENDROOT
TORSDOF 0
REMARK  Name = ../refined-set-2016/3arw/3arw_pocket.pdb
REMARK  130 active torsions:
REMARK  status: ('A' for Active; 'I' for Inactive)
REMARK    1  A    between atoms: _1  and  _3
REMARK    2  A    between atoms: _3  and  _4
REMARK    3  A    between atoms: _3  and  _6
REMARK    4  A    between atoms: _6  and  _7
REMARK    5  A    between atoms: _17  and  _19
REMARK    6  A    between atoms: _19  and  _20
REMARK    7  A    between atoms: _19  and  _22
REMARK    8  A    between atoms: _22  and  _23
REMARK    9  A    between atoms: _29  and  _31
REMARK   10  A    between atoms: _31  and  _32
REMARK   11  A    between atoms: _31  and  _34
REMARK   12  A    between atoms: _34  and  _35
REMARK   13  A    between atoms: _37  and  _39
REMARK   14  A    between atoms: _39  and  _40
REMARK   15  A    between atoms: _39  and  _42
REMARK   16  A    between atoms: _42  and  _43
REMARK   17  A    between atoms: _45  and  _47
REMARK   18  A    between atoms: _47  and  _48
REMARK   19  A    between atoms: _47  and  _50
REMARK   20  A    between atoms: _53  and  _55
REMARK   21  A    between atoms: _55  and  _56
REMARK   22  A    between atoms: _58  and  _60
REMARK   23  A    between atoms: _60  and  _61
REMARK   24  A    between atoms: _60  and  _63
REMARK   25  A    between atoms: _63  and  _64
REMARK   26  A    between atoms: _74  and  _76
REMARK   27  A    between atoms: _76  and  _77
REMARK   28  A    between atoms: _76  and  _79
REMARK   29  A    between atoms: _79  and  _80
REMARK   30  A    between atoms: _83  and  _85
REMARK   31  A    between atoms: _85  and  _86
REMARK   32  A    between atoms: _85  and  _88
REMARK   33  A    between atoms: _88  and  _89
REMARK   34  A    between atoms: _92  and  _94
REMARK   35  A    between atoms: _94  and  _95
REMARK   36  A    between atoms: _94  and  _97
REMARK   37  A    between atoms: _97  and  _98
REMARK   38  A    between atoms: _98  and  _99
REMARK   39  A    between atoms: _102  and  _104
REMARK   40  A    between atoms: _104  and  _105
REMARK   41  A    between atoms: _104  and  _107
REMARK   42  A    between atoms: _107  and  _108
REMARK   43  A    between atoms: _114  and  _116
REMARK   44  A    between atoms: _116  and  _117
REMARK   45  A    between atoms: _119  and  _121
REMARK   46  A    between atoms: _121  and  _122
REMARK   47  A    between atoms: _124  and  _126
REMARK   48  A    between atoms: _126  and  _127
REMARK   49  A    between atoms: _130  and  _132
REMARK   50  A    between atoms: _132  and  _133
REMARK   51  A    between atoms: _132  and  _135
REMARK   52  A    between atoms: _135  and  _136
REMARK   53  A    between atoms: _136  and  _137
REMARK   54  A    between atoms: _137  and  _138
REMARK   55  A    between atoms: _138  and  _139
REMARK   56  A    between atoms: _143  and  _145
REMARK   57  A    between atoms: _145  and  _146
REMARK   58  A    between atoms: _145  and  _148
REMARK   59  A    between atoms: _148  and  _149
REMARK   60  A    between atoms: _149  and  _150
REMARK   61  A    between atoms: _152  and  _154
REMARK   62  A    between atoms: _154  and  _155
REMARK   63  A    between atoms: _154  and  _157
REMARK   64  A    between atoms: _157  and  _158
REMARK   65  A    between atoms: _163  and  _164
REMARK   66  A    between atoms: _166  and  _168
REMARK   67  A    between atoms: _168  and  _169
REMARK   68  A    between atoms: _168  and  _171
REMARK   69  A    between atoms: _171  and  _172
REMARK   70  A    between atoms: _175  and  _177
REMARK   71  A    between atoms: _177  and  _178
REMARK   72  A    between atoms: _177  and  _180
REMARK   73  A    between atoms: _180  and  _181
REMARK   74  A    between atoms: _187  and  _189
REMARK   75  A    between atoms: _189  and  _190
REMARK   76  A    between atoms: _189  and  _192
REMARK   77  A    between atoms: _192  and  _193
REMARK   78  A    between atoms: _198  and  _199
REMARK   79  A    between atoms: _201  and  _203
REMARK   80  A    between atoms: _203  and  _204
REMARK   81  A    between atoms: _206  and  _208
REMARK   82  A    between atoms: _208  and  _209
REMARK   83  A    between atoms: _211  and  _213
REMARK   84  A    between atoms: _213  and  _214
REMARK   85  A    between atoms: _213  and  _216
REMARK   86  A    between atoms: _216  and  _217
REMARK   87  A    between atoms: _227  and  _229
REMARK   88  A    between atoms: _229  and  _230
REMARK   89  A    between atoms: _229  and  _232
REMARK   90  A    between atoms: _232  and  _233
REMARK   91  A    between atoms: _238  and  _240
REMARK   92  A    between atoms: _240  and  _241
REMARK   93  A    between atoms: _240  and  _243
REMARK   94  A    between atoms: _243  and  _244
REMARK   95  A    between atoms: _249  and  _250
REMARK   96  A    between atoms: _252  and  _254
REMARK   97  A    between atoms: _254  and  _255
REMARK   98  A    between atoms: _254  and  _257
REMARK   99  A    between atoms: _257  and  _258
REMARK  100  A    between atoms: _263  and  _264
REMARK  101  A    between atoms: _266  and  _268
REMARK  102  A    between atoms: _268  and  _269
REMARK  103  A    between atoms: _268  and  _271
REMARK  104  A    between atoms: _271  and  _272
REMARK  105  A    between atoms: _272  and  _273
REMARK  106  A    between atoms: _273  and  _274
REMARK  107  A    between atoms: _283  and  _285
REMARK  108  A    between atoms: _285  and  _286
REMARK  109  A    between atoms: _285  and  _288
REMARK  110  A    between atoms: _288  and  _289
REMARK  111  A    between atoms: _289  and  _290
REMARK  112  A    between atoms: _290  and  _291
REMARK  113  A    between atoms: _291  and  _292
REMARK  114  A    between atoms: _296  and  _298
REMARK  115  A    between atoms: _298  and  _299
REMARK  116  A    between atoms: _298  and  _301
REMARK  117  A    between atoms: _301  and  _302
REMARK  118  A    between atoms: _302  and  _303
REMARK  119  A    between atoms: _306  and  _308
REMARK  120  A    between atoms: _308  and  _309
REMARK  121  A    between atoms: _308  and  _311
REMARK  122  A    between atoms: _314  and  _316
REMARK  123  A    between atoms: _316  and  _317
REMARK  124  A    between atoms: _316  and  _319
REMARK  125  A    between atoms: _319  and  _320
REMARK  126  A    between atoms: _330  and  _332
REMARK  127  A    between atoms: _332  and  _333
REMARK  128  A    between atoms: _332  and  _335
REMARK  129  A    between atoms: _335  and  _336
REMARK  130  A    between atoms: _336  and  _337
REMARK                            x       y       z     vdW  Elec       q    Type
REMARK                         _______ _______ _______ _____ _____    ______ ____
ROOT
ATOM      1  O   HOH     1      17.175  -3.566  32.033  0.00  0.00    +0.000 OA
ENDROOT
TORSDOF 0
REMARK  Name = ../refined-set-2016/3arw/3arw_pocket.pdb
REMARK  130 active torsions:
REMARK  status: ('A' for Active; 'I' for Inactive)
REMARK    1  A    between atoms: _1  and  _3
REMARK    2  A    between atoms: _3  and  _4
REMARK    3  A    between atoms: _3  and  _6
REMARK    4  A    between atoms: _6  and  _7
REMARK    5  A    between atoms: _17  and  _19
REMARK    6  A    between atoms: _19  and  _20
REMARK    7  A    between atoms: _19  and  _22
REMARK    8  A    between atoms: _22  and  _23
REMARK    9  A    between atoms: _29  and  _31
REMARK   10  A    between atoms: _31  and  _32
REMARK   11  A    between atoms: _31  and  _34
REMARK   12  A    between atoms: _34  and  _35
REMARK   13  A    between atoms: _37  and  _39
REMARK   14  A    between atoms: _39  and  _40
REMARK   15  A    between atoms: _39  and  _42
REMARK   16  A    between atoms: _42  and  _43
REMARK   17  A    between atoms: _45  and  _47
REMARK   18  A    between atoms: _47  and  _48
REMARK   19  A    between atoms: _47  and  _50
REMARK   20  A    between atoms: _53  and  _55
REMARK   21  A    between atoms: _55  and  _56
REMARK   22  A    between atoms: _58  and  _60
REMARK   23  A    between atoms: _60  and  _61
REMARK   24  A    between atoms: _60  and  _63
REMARK   25  A    between atoms: _63  and  _64
REMARK   26  A    between atoms: _74  and  _76
REMARK   27  A    between atoms: _76  and  _77
REMARK   28  A    between atoms: _76  and  _79
REMARK   29  A    between atoms: _79  and  _80
REMARK   30  A    between atoms: _83  and  _85
REMARK   31  A    between atoms: _85  and  _86
REMARK   32  A    between atoms: _85  and  _88
REMARK   33  A    between atoms: _88  and  _89
REMARK   34  A    between atoms: _92  and  _94
REMARK   35  A    between atoms: _94  and  _95
REMARK   36  A    between atoms: _94  and  _97
REMARK   37  A    between atoms: _97  and  _98
REMARK   38  A    between atoms: _98  and  _99
REMARK   39  A    between atoms: _102  and  _104
REMARK   40  A    between atoms: _104  and  _105
REMARK   41  A    between atoms: _104  and  _107
REMARK   42  A    between atoms: _107  and  _108
REMARK   43  A    between atoms: _114  and  _116
REMARK   44  A    between atoms: _116  and  _117
REMARK   45  A    between atoms: _119  and  _121
REMARK   46  A    between atoms: _121  and  _122
REMARK   47  A    between atoms: _124  and  _126
REMARK   48  A    between atoms: _126  and  _127
REMARK   49  A    between atoms: _130  and  _132
REMARK   50  A    between atoms: _132  and  _133
REMARK   51  A    between atoms: _132  and  _135
REMARK   52  A    between atoms: _135  and  _136
REMARK   53  A    between atoms: _136  and  _137
REMARK   54  A    between atoms: _137  and  _138
REMARK   55  A    between atoms: _138  and  _139
REMARK   56  A    between atoms: _143  and  _145
REMARK   57  A    between atoms: _145  and  _146
REMARK   58  A    between atoms: _145  and  _148
REMARK   59  A    between atoms: _148  and  _149
REMARK   60  A    between atoms: _149  and  _150
REMARK   61  A    between atoms: _152  and  _154
REMARK   62  A    between atoms: _154  and  _155
REMARK   63  A    between atoms: _154  and  _157
REMARK   64  A    between atoms: _157  and  _158
REMARK   65  A    between atoms: _163  and  _164
REMARK   66  A    between atoms: _166  and  _168
REMARK   67  A    between atoms: _168  and  _169
REMARK   68  A    between atoms: _168  and  _171
REMARK   69  A    between atoms: _171  and  _172
REMARK   70  A    between atoms: _175  and  _177
REMARK   71  A    between atoms: _177  and  _178
REMARK   72  A    between atoms: _177  and  _180
REMARK   73  A    between atoms: _180  and  _181
REMARK   74  A    between atoms: _187  and  _189
REMARK   75  A    between atoms: _189  and  _190
REMARK   76  A    between atoms: _189  and  _192
REMARK   77  A    between atoms: _192  and  _193
REMARK   78  A    between atoms: _198  and  _199
REMARK   79  A    between atoms: _201  and  _203
REMARK   80  A    between atoms: _203  and  _204
REMARK   81  A    between atoms: _206  and  _208
REMARK   82  A    between atoms: _208  and  _209
REMARK   83  A    between atoms: _211  and  _213
REMARK   84  A    between atoms: _213  and  _214
REMARK   85  A    between atoms: _213  and  _216
REMARK   86  A    between atoms: _216  and  _217
REMARK   87  A    between atoms: _227  and  _229
REMARK   88  A    between atoms: _229  and  _230
REMARK   89  A    between atoms: _229  and  _232
REMARK   90  A    between atoms: _232  and  _233
REMARK   91  A    between atoms: _238  and  _240
REMARK   92  A    between atoms: _240  and  _241
REMARK   93  A    between atoms: _240  and  _243
REMARK   94  A    between atoms: _243  and  _244
REMARK   95  A    between atoms: _249  and  _250
REMARK   96  A    between atoms: _252  and  _254
REMARK   97  A    between atoms: _254  and  _255
REMARK   98  A    between atoms: _254  and  _257
REMARK   99  A    between atoms: _257  and  _258
REMARK  100  A    between atoms: _263  and  _264
REMARK  101  A    between atoms: _266  and  _268
REMARK  102  A    between atoms: _268  and  _269
REMARK  103  A    between atoms: _268  and  _271
REMARK  104  A    between atoms: _271  and  _272
REMARK  105  A    between atoms: _272  and  _273
REMARK  106  A    between atoms: _273  and  _274
REMARK  107  A    between atoms: _283  and  _285
REMARK  108  A    between atoms: _285  and  _286
REMARK  109  A    between atoms: _285  and  _288
REMARK  110  A    between atoms: _288  and  _289
REMARK  111  A    between atoms: _289  and  _290
REMARK  112  A    between atoms: _290  and  _291
REMARK  113  A    between atoms: _291  and  _292
REMARK  114  A    between atoms: _296  and  _298
REMARK  115  A    between atoms: _298  and  _299
REMARK  116  A    between atoms: _298  and  _301
REMARK  117  A    between atoms: _301  and  _302
REMARK  118  A    between atoms: _302  and  _303
REMARK  119  A    between atoms: _306  and  _308
REMARK  120  A    between atoms: _308  and  _309
REMARK  121  A    between atoms: _308  and  _311
REMARK  122  A    between atoms: _314  and  _316
REMARK  123  A    between atoms: _316  and  _317
REMARK  124  A    between atoms: _316  and  _319
REMARK  125  A    between atoms: _319  and  _320
REMARK  126  A    between atoms: _330  and  _332
REMARK  127  A    between atoms: _332  and  _333
REMARK  128  A    between atoms: _332  and  _335
REMARK  129  A    between atoms: _335  and  _336
REMARK  130  A    between atoms: _336  and  _337
REMARK                            x       y       z     vdW  Elec       q    Type
REMARK                         _______ _______ _______ _____ _____    ______ ____
ROOT
ATOM      1  O   HOH     1      22.123 -14.522  28.354  0.00  0.00    +0.000 OA
ENDROOT
TORSDOF 0
REMARK  Name = ../refined-set-2016/3arw/3arw_pocket.pdb
REMARK  130 active torsions:
REMARK  status: ('A' for Active; 'I' for Inactive)
REMARK    1  A    between atoms: _1  and  _3
REMARK    2  A    between atoms: _3  and  _4
REMARK    3  A    between atoms: _3  and  _6
REMARK    4  A    between atoms: _6  and  _7
REMARK    5  A    between atoms: _17  and  _19
REMARK    6  A    between atoms: _19  and  _20
REMARK    7  A    between atoms: _19  and  _22
REMARK    8  A    between atoms: _22  and  _23
REMARK    9  A    between atoms: _29  and  _31
REMARK   10  A    between atoms: _31  and  _32
REMARK   11  A    between atoms: _31  and  _34
REMARK   12  A    between atoms: _34  and  _35
REMARK   13  A    between atoms: _37  and  _39
REMARK   14  A    between atoms: _39  and  _40
REMARK   15  A    between atoms: _39  and  _42
REMARK   16  A    between atoms: _42  and  _43
REMARK   17  A    between atoms: _45  and  _47
REMARK   18  A    between atoms: _47  and  _48
REMARK   19  A    between atoms: _47  and  _50
REMARK   20  A    between atoms: _53  and  _55
REMARK   21  A    between atoms: _55  and  _56
REMARK   22  A    between atoms: _58  and  _60
REMARK   23  A    between atoms: _60  and  _61
REMARK   24  A    between atoms: _60  and  _63
REMARK   25  A    between atoms: _63  and  _64
REMARK   26  A    between atoms: _74  and  _76
REMARK   27  A    between atoms: _76  and  _77
REMARK   28  A    between atoms: _76  and  _79
REMARK   29  A    between atoms: _79  and  _80
REMARK   30  A    between atoms: _83  and  _85
REMARK   31  A    between atoms: _85  and  _86
REMARK   32  A    between atoms: _85  and  _88
REMARK   33  A    between atoms: _88  and  _89
REMARK   34  A    between atoms: _92  and  _94
REMARK   35  A    between atoms: _94  and  _95
REMARK   36  A    between atoms: _94  and  _97
REMARK   37  A    between atoms: _97  and  _98
REMARK   38  A    between atoms: _98  and  _99
REMARK   39  A    between atoms: _102  and  _104
REMARK   40  A    between atoms: _104  and  _105
REMARK   41  A    between atoms: _104  and  _107
REMARK   42  A    between atoms: _107  and  _108
REMARK   43  A    between atoms: _114  and  _116
REMARK   44  A    between atoms: _116  and  _117
REMARK   45  A    between atoms: _119  and  _121
REMARK   46  A    between atoms: _121  and  _122
REMARK   47  A    between atoms: _124  and  _126
REMARK   48  A    between atoms: _126  and  _127
REMARK   49  A    between atoms: _130  and  _132
REMARK   50  A    between atoms: _132  and  _133
REMARK   51  A    between atoms: _132  and  _135
REMARK   52  A    between atoms: _135  and  _136
REMARK   53  A    between atoms: _136  and  _137
REMARK   54  A    between atoms: _137  and  _138
REMARK   55  A    between atoms: _138  and  _139
REMARK   56  A    between atoms: _143  and  _145
REMARK   57  A    between atoms: _145  and  _146
REMARK   58  A    between atoms: _145  and  _148
REMARK   59  A    between atoms: _148  and  _149
REMARK   60  A    between atoms: _149  and  _150
REMARK   61  A    between atoms: _152  and  _154
REMARK   62  A    between atoms: _154  and  _155
REMARK   63  A    between atoms: _154  and  _157
REMARK   64  A    between atoms: _157  and  _158
REMARK   65  A    between atoms: _163  and  _164
REMARK   66  A    between atoms: _166  and  _168
REMARK   67  A    between atoms: _168  and  _169
REMARK   68  A    between atoms: _168  and  _171
REMARK   69  A    between atoms: _171  and  _172
REMARK   70  A    between atoms: _175  and  _177
REMARK   71  A    between atoms: _177  and  _178
REMARK   72  A    between atoms: _177  and  _180
REMARK   73  A    between atoms: _180  and  _181
REMARK   74  A    between atoms: _187  and  _189
REMARK   75  A    between atoms: _189  and  _190
REMARK   76  A    between atoms: _189  and  _192
REMARK   77  A    between atoms: _192  and  _193
REMARK   78  A    between atoms: _198  and  _199
REMARK   79  A    between atoms: _201  and  _203
REMARK   80  A    between atoms: _203  and  _204
REMARK   81  A    between atoms: _206  and  _208
REMARK   82  A    between atoms: _208  and  _209
REMARK   83  A    between atoms: _211  and  _213
REMARK   84  A    between atoms: _213  and  _214
REMARK   85  A    between atoms: _213  and  _216
REMARK   86  A    between atoms: _216  and  _217
REMARK   87  A    between atoms: _227  and  _229
REMARK   88  A    between atoms: _229  and  _230
REMARK   89  A    between atoms: _229  and  _232
REMARK   90  A    between atoms: _232  and  _233
REMARK   91  A    between atoms: _238  and  _240
REMARK   92  A    between atoms: _240  and  _241
REMARK   93  A    between atoms: _240  and  _243
REMARK   94  A    between atoms: _243  and  _244
REMARK   95  A    between atoms: _249  and  _250
REMARK   96  A    between atoms: _252  and  _254
REMARK   97  A    between atoms: _254  and  _255
REMARK   98  A    between atoms: _254  and  _257
REMARK   99  A    between atoms: _257  and  _258
REMARK  100  A    between atoms: _263  and  _264
REMARK  101  A    between atoms: _266  and  _268
REMARK  102  A    between atoms: _268  and  _269
REMARK  103  A    between atoms: _268  and  _271
REMARK  104  A    between atoms: _271  and  _272
REMARK  105  A    between atoms: _272  and  _273
REMARK  106  A    between atoms: _273  and  _274
REMARK  107  A    between atoms: _283  and  _285
REMARK  108  A    between atoms: _285  and  _286
REMARK  109  A    between atoms: _285  and  _288
REMARK  110  A    between atoms: _288  and  _289
REMARK  111  A    between atoms: _289  and  _290
REMARK  112  A    between atoms: _290  and  _291
REMARK  113  A    between atoms: _291  and  _292
REMARK  114  A    between atoms: _296  and  _298
REMARK  115  A    between atoms: _298  and  _299
REMARK  116  A    between atoms: _298  and  _301
REMARK  117  A    between atoms: _301  and  _302
REMARK  118  A    between atoms: _302  and  _303
REMARK  119  A    between atoms: _306  and  _308
REMARK  120  A    between atoms: _308  and  _309
REMARK  121  A    between atoms: _308  and  _311
REMARK  122  A    between atoms: _314  and  _316
REMARK  123  A    between atoms: _316  and  _317
REMARK  124  A    between atoms: _316  and  _319
REMARK  125  A    between atoms: _319  and  _320
REMARK  126  A    between atoms: _330  and  _332
REMARK  127  A    between atoms: _332  and  _333
REMARK  128  A    between atoms: _332  and  _335
REMARK  129  A    between atoms: _335  and  _336
REMARK  130  A    between atoms: _336  and  _337
REMARK                            x       y       z     vdW  Elec       q    Type
REMARK                         _______ _______ _______ _____ _____    ______ ____
ROOT
ATOM      1  O   HOH     1      22.814  -5.920  25.109  0.00  0.00    +0.000 OA
ENDROOT
TORSDOF 0
REMARK  Name = ../refined-set-2016/3arw/3arw_pocket.pdb
REMARK  130 active torsions:
REMARK  status: ('A' for Active; 'I' for Inactive)
REMARK    1  A    between atoms: _1  and  _3
REMARK    2  A    between atoms: _3  and  _4
REMARK    3  A    between atoms: _3  and  _6
REMARK    4  A    between atoms: _6  and  _7
REMARK    5  A    between atoms: _17  and  _19
REMARK    6  A    between atoms: _19  and  _20
REMARK    7  A    between atoms: _19  and  _22
REMARK    8  A    between atoms: _22  and  _23
REMARK    9  A    between atoms: _29  and  _31
REMARK   10  A    between atoms: _31  and  _32
REMARK   11  A    between atoms: _31  and  _34
REMARK   12  A    between atoms: _34  and  _35
REMARK   13  A    between atoms: _37  and  _39
REMARK   14  A    between atoms: _39  and  _40
REMARK   15  A    between atoms: _39  and  _42
REMARK   16  A    between atoms: _42  and  _43
REMARK   17  A    between atoms: _45  and  _47
REMARK   18  A    between atoms: _47  and  _48
REMARK   19  A    between atoms: _47  and  _50
REMARK   20  A    between atoms: _53  and  _55
REMARK   21  A    between atoms: _55  and  _56
REMARK   22  A    between atoms: _58  and  _60
REMARK   23  A    between atoms: _60  and  _61
REMARK   24  A    between atoms: _60  and  _63
REMARK   25  A    between atoms: _63  and  _64
REMARK   26  A    between atoms: _74  and  _76
REMARK   27  A    between atoms: _76  and  _77
REMARK   28  A    between atoms: _76  and  _79
REMARK   29  A    between atoms: _79  and  _80
REMARK   30  A    between atoms: _83  and  _85
REMARK   31  A    between atoms: _85  and  _86
REMARK   32  A    between atoms: _85  and  _88
REMARK   33  A    between atoms: _88  and  _89
REMARK   34  A    between atoms: _92  and  _94
REMARK   35  A    between atoms: _94  and  _95
REMARK   36  A    between atoms: _94  and  _97
REMARK   37  A    between atoms: _97  and  _98
REMARK   38  A    between atoms: _98  and  _99
REMARK   39  A    between atoms: _102  and  _104
REMARK   40  A    between atoms: _104  and  _105
REMARK   41  A    between atoms: _104  and  _107
REMARK   42  A    between atoms: _107  and  _108
REMARK   43  A    between atoms: _114  and  _116
REMARK   44  A    between atoms: _116  and  _117
REMARK   45  A    between atoms: _119  and  _121
REMARK   46  A    between atoms: _121  and  _122
REMARK   47  A    between atoms: _124  and  _126
REMARK   48  A    between atoms: _126  and  _127
REMARK   49  A    between atoms: _130  and  _132
REMARK   50  A    between atoms: _132  and  _133
REMARK   51  A    between atoms: _132  and  _135
REMARK   52  A    between atoms: _135  and  _136
REMARK   53  A    between atoms: _136  and  _137
REMARK   54  A    between atoms: _137  and  _138
REMARK   55  A    between atoms: _138  and  _139
REMARK   56  A    between atoms: _143  and  _145
REMARK   57  A    between atoms: _145  and  _146
REMARK   58  A    between atoms: _145  and  _148
REMARK   59  A    between atoms: _148  and  _149
REMARK   60  A    between atoms: _149  and  _150
REMARK   61  A    between atoms: _152  and  _154
REMARK   62  A    between atoms: _154  and  _155
REMARK   63  A    between atoms: _154  and  _157
REMARK   64  A    between atoms: _157  and  _158
REMARK   65  A    between atoms: _163  and  _164
REMARK   66  A    between atoms: _166  and  _168
REMARK   67  A    between atoms: _168  and  _169
REMARK   68  A    between atoms: _168  and  _171
REMARK   69  A    between atoms: _171  and  _172
REMARK   70  A    between atoms: _175  and  _177
REMARK   71  A    between atoms: _177  and  _178
REMARK   72  A    between atoms: _177  and  _180
REMARK   73  A    between atoms: _180  and  _181
REMARK   74  A    between atoms: _187  and  _189
REMARK   75  A    between atoms: _189  and  _190
REMARK   76  A    between atoms: _189  and  _192
REMARK   77  A    between atoms: _192  and  _193
REMARK   78  A    between atoms: _198  and  _199
REMARK   79  A    between atoms: _201  and  _203
REMARK   80  A    between atoms: _203  and  _204
REMARK   81  A    between atoms: _206  and  _208
REMARK   82  A    between atoms: _208  and  _209
REMARK   83  A    between atoms: _211  and  _213
REMARK   84  A    between atoms: _213  and  _214
REMARK   85  A    between atoms: _213  and  _216
REMARK   86  A    between atoms: _216  and  _217
REMARK   87  A    between atoms: _227  and  _229
REMARK   88  A    between atoms: _229  and  _230
REMARK   89  A    between atoms: _229  and  _232
REMARK   90  A    between atoms: _232  and  _233
REMARK   91  A    between atoms: _238  and  _240
REMARK   92  A    between atoms: _240  and  _241
REMARK   93  A    between atoms: _240  and  _243
REMARK   94  A    between atoms: _243  and  _244
REMARK   95  A    between atoms: _249  and  _250
REMARK   96  A    between atoms: _252  and  _254
REMARK   97  A    between atoms: _254  and  _255
REMARK   98  A    between atoms: _254  and  _257
REMARK   99  A    between atoms: _257  and  _258
REMARK  100  A    between atoms: _263  and  _264
REMARK  101  A    between atoms: _266  and  _268
REMARK  102  A    between atoms: _268  and  _269
REMARK  103  A    between atoms: _268  and  _271
REMARK  104  A    between atoms: _271  and  _272
REMARK  105  A    between atoms: _272  and  _273
REMARK  106  A    between atoms: _273  and  _274
REMARK  107  A    between atoms: _283  and  _285
REMARK  108  A    between atoms: _285  and  _286
REMARK  109  A    between atoms: _285  and  _288
REMARK  110  A    between atoms: _288  and  _289
REMARK  111  A    between atoms: _289  and  _290
REMARK  112  A    between atoms: _290  and  _291
REMARK  113  A    between atoms: _291  and  _292
REMARK  114  A    between atoms: _296  and  _298
REMARK  115  A    between atoms: _298  and  _299
REMARK  116  A    between atoms: _298  and  _301
REMARK  117  A    between atoms: _301  and  _302
REMARK  118  A    between atoms: _302  and  _303
REMARK  119  A    between atoms: _306  and  _308
REMARK  120  A    between atoms: _308  and  _309
REMARK  121  A    between atoms: _308  and  _311
REMARK  122  A    between atoms: _314  and  _316
REMARK  123  A    between atoms: _316  and  _317
REMARK  124  A    between atoms: _316  and  _319
REMARK  125  A    between atoms: _319  and  _320
REMARK  126  A    between atoms: _330  and  _332
REMARK  127  A    between atoms: _332  and  _333
REMARK  128  A    between atoms: _332  and  _335
REMARK  129  A    between atoms: _335  and  _336
REMARK  130  A    between atoms: _336  and  _337
REMARK                            x       y       z     vdW  Elec       q    Type
REMARK                         _______ _______ _______ _____ _____    ______ ____
ROOT
ATOM      1  O   HOH     1      17.444  -4.937  23.475  0.00  0.00    +0.000 OA
ENDROOT
TORSDOF 0
REMARK  Name = ../refined-set-2016/3arw/3arw_pocket.pdb
REMARK  130 active torsions:
REMARK  status: ('A' for Active; 'I' for Inactive)
REMARK    1  A    between atoms: _1  and  _3
REMARK    2  A    between atoms: _3  and  _4
REMARK    3  A    between atoms: _3  and  _6
REMARK    4  A    between atoms: _6  and  _7
REMARK    5  A    between atoms: _17  and  _19
REMARK    6  A    between atoms: _19  and  _20
REMARK    7  A    between atoms: _19  and  _22
REMARK    8  A    between atoms: _22  and  _23
REMARK    9  A    between atoms: _29  and  _31
REMARK   10  A    between atoms: _31  and  _32
REMARK   11  A    between atoms: _31  and  _34
REMARK   12  A    between atoms: _34  and  _35
REMARK   13  A    between atoms: _37  and  _39
REMARK   14  A    between atoms: _39  and  _40
REMARK   15  A    between atoms: _39  and  _42
REMARK   16  A    between atoms: _42  and  _43
REMARK   17  A    between atoms: _45  and  _47
REMARK   18  A    between atoms: _47  and  _48
REMARK   19  A    between atoms: _47  and  _50
REMARK   20  A    between atoms: _53  and  _55
REMARK   21  A    between atoms: _55  and  _56
REMARK   22  A    between atoms: _58  and  _60
REMARK   23  A    between atoms: _60  and  _61
REMARK   24  A    between atoms: _60  and  _63
REMARK   25  A    between atoms: _63  and  _64
REMARK   26  A    between atoms: _74  and  _76
REMARK   27  A    between atoms: _76  and  _77
REMARK   28  A    between atoms: _76  and  _79
REMARK   29  A    between atoms: _79  and  _80
REMARK   30  A    between atoms: _83  and  _85
REMARK   31  A    between atoms: _85  and  _86
REMARK   32  A    between atoms: _85  and  _88
REMARK   33  A    between atoms: _88  and  _89
REMARK   34  A    between atoms: _92  and  _94
REMARK   35  A    between atoms: _94  and  _95
REMARK   36  A    between atoms: _94  and  _97
REMARK   37  A    between atoms: _97  and  _98
REMARK   38  A    between atoms: _98  and  _99
REMARK   39  A    between atoms: _102  and  _104
REMARK   40  A    between atoms: _104  and  _105
REMARK   41  A    between atoms: _104  and  _107
REMARK   42  A    between atoms: _107  and  _108
REMARK   43  A    between atoms: _114  and  _116
REMARK   44  A    between atoms: _116  and  _117
REMARK   45  A    between atoms: _119  and  _121
REMARK   46  A    between atoms: _121  and  _122
REMARK   47  A    between atoms: _124  and  _126
REMARK   48  A    between atoms: _126  and  _127
REMARK   49  A    between atoms: _130  and  _132
REMARK   50  A    between atoms: _132  and  _133
REMARK   51  A    between atoms: _132  and  _135
REMARK   52  A    between atoms: _135  and  _136
REMARK   53  A    between atoms: _136  and  _137
REMARK   54  A    between atoms: _137  and  _138
REMARK   55  A    between atoms: _138  and  _139
REMARK   56  A    between atoms: _143  and  _145
REMARK   57  A    between atoms: _145  and  _146
REMARK   58  A    between atoms: _145  and  _148
REMARK   59  A    between atoms: _148  and  _149
REMARK   60  A    between atoms: _149  and  _150
REMARK   61  A    between atoms: _152  and  _154
REMARK   62  A    between atoms: _154  and  _155
REMARK   63  A    between atoms: _154  and  _157
REMARK   64  A    between atoms: _157  and  _158
REMARK   65  A    between atoms: _163  and  _164
REMARK   66  A    between atoms: _166  and  _168
REMARK   67  A    between atoms: _168  and  _169
REMARK   68  A    between atoms: _168  and  _171
REMARK   69  A    between atoms: _171  and  _172
REMARK   70  A    between atoms: _175  and  _177
REMARK   71  A    between atoms: _177  and  _178
REMARK   72  A    between atoms: _177  and  _180
REMARK   73  A    between atoms: _180  and  _181
REMARK   74  A    between atoms: _187  and  _189
REMARK   75  A    between atoms: _189  and  _190
REMARK   76  A    between atoms: _189  and  _192
REMARK   77  A    between atoms: _192  and  _193
REMARK   78  A    between atoms: _198  and  _199
REMARK   79  A    between atoms: _201  and  _203
REMARK   80  A    between atoms: _203  and  _204
REMARK   81  A    between atoms: _206  and  _208
REMARK   82  A    between atoms: _208  and  _209
REMARK   83  A    between atoms: _211  and  _213
REMARK   84  A    between atoms: _213  and  _214
REMARK   85  A    between atoms: _213  and  _216
REMARK   86  A    between atoms: _216  and  _217
REMARK   87  A    between atoms: _227  and  _229
REMARK   88  A    between atoms: _229  and  _230
REMARK   89  A    between atoms: _229  and  _232
REMARK   90  A    between atoms: _232  and  _233
REMARK   91  A    between atoms: _238  and  _240
REMARK   92  A    between atoms: _240  and  _241
REMARK   93  A    between atoms: _240  and  _243
REMARK   94  A    between atoms: _243  and  _244
REMARK   95  A    between atoms: _249  and  _250
REMARK   96  A    between atoms: _252  and  _254
REMARK   97  A    between atoms: _254  and  _255
REMARK   98  A    between atoms: _254  and  _257
REMARK   99  A    between atoms: _257  and  _258
REMARK  100  A    between atoms: _263  and  _264
REMARK  101  A    between atoms: _266  and  _268
REMARK  102  A    between atoms: _268  and  _269
REMARK  103  A    between atoms: _268  and  _271
REMARK  104  A    between atoms: _271  and  _272
REMARK  105  A    between atoms: _272  and  _273
REMARK  106  A    between atoms: _273  and  _274
REMARK  107  A    between atoms: _283  and  _285
REMARK  108  A    between atoms: _285  and  _286
REMARK  109  A    between atoms: _285  and  _288
REMARK  110  A    between atoms: _288  and  _289
REMARK  111  A    between atoms: _289  and  _290
REMARK  112  A    between atoms: _290  and  _291
REMARK  113  A    between atoms: _291  and  _292
REMARK  114  A    between atoms: _296  and  _298
REMARK  115  A    between atoms: _298  and  _299
REMARK  116  A    between atoms: _298  and  _301
REMARK  117  A    between atoms: _301  and  _302
REMARK  118  A    between atoms: _302  and  _303
REMARK  119  A    between atoms: _306  and  _308
REMARK  120  A    between atoms: _308  and  _309
REMARK  121  A    between atoms: _308  and  _311
REMARK  122  A    between atoms: _314  and  _316
REMARK  123  A    between atoms: _316  and  _317
REMARK  124  A    between atoms: _316  and  _319
REMARK  125  A    between atoms: _319  and  _320
REMARK  126  A    between atoms: _330  and  _332
REMARK  127  A    between atoms: _332  and  _333
REMARK  128  A    between atoms: _332  and  _335
REMARK  129  A    between atoms: _335  and  _336
REMARK  130  A    between atoms: _336  and  _337
REMARK                            x       y       z     vdW  Elec       q    Type
REMARK                         _______ _______ _______ _____ _____    ______ ____
ROOT
ATOM      1  O   HOH     1      15.388  -4.705  23.433  0.00  0.00    +0.000 OA
ENDROOT
TORSDOF 0
REMARK  Name = ../refined-set-2016/3arw/3arw_pocket.pdb
REMARK  130 active torsions:
REMARK  status: ('A' for Active; 'I' for Inactive)
REMARK    1  A    between atoms: _1  and  _3
REMARK    2  A    between atoms: _3  and  _4
REMARK    3  A    between atoms: _3  and  _6
REMARK    4  A    between atoms: _6  and  _7
REMARK    5  A    between atoms: _17  and  _19
REMARK    6  A    between atoms: _19  and  _20
REMARK    7  A    between atoms: _19  and  _22
REMARK    8  A    between atoms: _22  and  _23
REMARK    9  A    between atoms: _29  and  _31
REMARK   10  A    between atoms: _31  and  _32
REMARK   11  A    between atoms: _31  and  _34
REMARK   12  A    between atoms: _34  and  _35
REMARK   13  A    between atoms: _37  and  _39
REMARK   14  A    between atoms: _39  and  _40
REMARK   15  A    between atoms: _39  and  _42
REMARK   16  A    between atoms: _42  and  _43
REMARK   17  A    between atoms: _45  and  _47
REMARK   18  A    between atoms: _47  and  _48
REMARK   19  A    between atoms: _47  and  _50
REMARK   20  A    between atoms: _53  and  _55
REMARK   21  A    between atoms: _55  and  _56
REMARK   22  A    between atoms: _58  and  _60
REMARK   23  A    between atoms: _60  and  _61
REMARK   24  A    between atoms: _60  and  _63
REMARK   25  A    between atoms: _63  and  _64
REMARK   26  A    between atoms: _74  and  _76
REMARK   27  A    between atoms: _76  and  _77
REMARK   28  A    between atoms: _76  and  _79
REMARK   29  A    between atoms: _79  and  _80
REMARK   30  A    between atoms: _83  and  _85
REMARK   31  A    between atoms: _85  and  _86
REMARK   32  A    between atoms: _85  and  _88
REMARK   33  A    between atoms: _88  and  _89
REMARK   34  A    between atoms: _92  and  _94
REMARK   35  A    between atoms: _94  and  _95
REMARK   36  A    between atoms: _94  and  _97
REMARK   37  A    between atoms: _97  and  _98
REMARK   38  A    between atoms: _98  and  _99
REMARK   39  A    between atoms: _102  and  _104
REMARK   40  A    between atoms: _104  and  _105
REMARK   41  A    between atoms: _104  and  _107
REMARK   42  A    between atoms: _107  and  _108
REMARK   43  A    between atoms: _114  and  _116
REMARK   44  A    between atoms: _116  and  _117
REMARK   45  A    between atoms: _119  and  _121
REMARK   46  A    between atoms: _121  and  _122
REMARK   47  A    between atoms: _124  and  _126
REMARK   48  A    between atoms: _126  and  _127
REMARK   49  A    between atoms: _130  and  _132
REMARK   50  A    between atoms: _132  and  _133
REMARK   51  A    between atoms: _132  and  _135
REMARK   52  A    between atoms: _135  and  _136
REMARK   53  A    between atoms: _136  and  _137
REMARK   54  A    between atoms: _137  and  _138
REMARK   55  A    between atoms: _138  and  _139
REMARK   56  A    between atoms: _143  and  _145
REMARK   57  A    between atoms: _145  and  _146
REMARK   58  A    between atoms: _145  and  _148
REMARK   59  A    between atoms: _148  and  _149
REMARK   60  A    between atoms: _149  and  _150
REMARK   61  A    between atoms: _152  and  _154
REMARK   62  A    between atoms: _154  and  _155
REMARK   63  A    between atoms: _154  and  _157
REMARK   64  A    between atoms: _157  and  _158
REMARK   65  A    between atoms: _163  and  _164
REMARK   66  A    between atoms: _166  and  _168
REMARK   67  A    between atoms: _168  and  _169
REMARK   68  A    between atoms: _168  and  _171
REMARK   69  A    between atoms: _171  and  _172
REMARK   70  A    between atoms: _175  and  _177
REMARK   71  A    between atoms: _177  and  _178
REMARK   72  A    between atoms: _177  and  _180
REMARK   73  A    between atoms: _180  and  _181
REMARK   74  A    between atoms: _187  and  _189
REMARK   75  A    between atoms: _189  and  _190
REMARK   76  A    between atoms: _189  and  _192
REMARK   77  A    between atoms: _192  and  _193
REMARK   78  A    between atoms: _198  and  _199
REMARK   79  A    between atoms: _201  and  _203
REMARK   80  A    between atoms: _203  and  _204
REMARK   81  A    between atoms: _206  and  _208
REMARK   82  A    between atoms: _208  and  _209
REMARK   83  A    between atoms: _211  and  _213
REMARK   84  A    between atoms: _213  and  _214
REMARK   85  A    between atoms: _213  and  _216
REMARK   86  A    between atoms: _216  and  _217
REMARK   87  A    between atoms: _227  and  _229
REMARK   88  A    between atoms: _229  and  _230
REMARK   89  A    between atoms: _229  and  _232
REMARK   90  A    between atoms: _232  and  _233
REMARK   91  A    between atoms: _238  and  _240
REMARK   92  A    between atoms: _240  and  _241
REMARK   93  A    between atoms: _240  and  _243
REMARK   94  A    between atoms: _243  and  _244
REMARK   95  A    between atoms: _249  and  _250
REMARK   96  A    between atoms: _252  and  _254
REMARK   97  A    between atoms: _254  and  _255
REMARK   98  A    between atoms: _254  and  _257
REMARK   99  A    between atoms: _257  and  _258
REMARK  100  A    between atoms: _263  and  _264
REMARK  101  A    between atoms: _266  and  _268
REMARK  102  A    between atoms: _268  and  _269
REMARK  103  A    between atoms: _268  and  _271
REMARK  104  A    between atoms: _271  and  _272
REMARK  105  A    between atoms: _272  and  _273
REMARK  106  A    between atoms: _273  and  _274
REMARK  107  A    between atoms: _283  and  _285
REMARK  108  A    between atoms: _285  and  _286
REMARK  109  A    between atoms: _285  and  _288
REMARK  110  A    between atoms: _288  and  _289
REMARK  111  A    between atoms: _289  and  _290
REMARK  112  A    between atoms: _290  and  _291
REMARK  113  A    between atoms: _291  and  _292
REMARK  114  A    between atoms: _296  and  _298
REMARK  115  A    between atoms: _298  and  _299
REMARK  116  A    between atoms: _298  and  _301
REMARK  117  A    between atoms: _301  and  _302
REMARK  118  A    between atoms: _302  and  _303
REMARK  119  A    between atoms: _306  and  _308
REMARK  120  A    between atoms: _308  and  _309
REMARK  121  A    between atoms: _308  and  _311
REMARK  122  A    between atoms: _314  and  _316
REMARK  123  A    between atoms: _316  and  _317
REMARK  124  A    between atoms: _316  and  _319
REMARK  125  A    between atoms: _319  and  _320
REMARK  126  A    between atoms: _330  and  _332
REMARK  127  A    between atoms: _332  and  _333
REMARK  128  A    between atoms: _332  and  _335
REMARK  129  A    between atoms: _335  and  _336
REMARK  130  A    between atoms: _336  and  _337
REMARK                            x       y       z     vdW  Elec       q    Type
REMARK                         _______ _______ _______ _____ _____    ______ ____
ROOT
ATOM      1  O   HOH     1      22.464 -16.331  22.285  0.00  0.00    +0.000 OA
ENDROOT
TORSDOF 0
REMARK  Name = ../refined-set-2016/3arw/3arw_pocket.pdb
REMARK  130 active torsions:
REMARK  status: ('A' for Active; 'I' for Inactive)
REMARK    1  A    between atoms: _1  and  _3
REMARK    2  A    between atoms: _3  and  _4
REMARK    3  A    between atoms: _3  and  _6
REMARK    4  A    between atoms: _6  and  _7
REMARK    5  A    between atoms: _17  and  _19
REMARK    6  A    between atoms: _19  and  _20
REMARK    7  A    between atoms: _19  and  _22
REMARK    8  A    between atoms: _22  and  _23
REMARK    9  A    between atoms: _29  and  _31
REMARK   10  A    between atoms: _31  and  _32
REMARK   11  A    between atoms: _31  and  _34
REMARK   12  A    between atoms: _34  and  _35
REMARK   13  A    between atoms: _37  and  _39
REMARK   14  A    between atoms: _39  and  _40
REMARK   15  A    between atoms: _39  and  _42
REMARK   16  A    between atoms: _42  and  _43
REMARK   17  A    between atoms: _45  and  _47
REMARK   18  A    between atoms: _47  and  _48
REMARK   19  A    between atoms: _47  and  _50
REMARK   20  A    between atoms: _53  and  _55
REMARK   21  A    between atoms: _55  and  _56
REMARK   22  A    between atoms: _58  and  _60
REMARK   23  A    between atoms: _60  and  _61
REMARK   24  A    between atoms: _60  and  _63
REMARK   25  A    between atoms: _63  and  _64
REMARK   26  A    between atoms: _74  and  _76
REMARK   27  A    between atoms: _76  and  _77
REMARK   28  A    between atoms: _76  and  _79
REMARK   29  A    between atoms: _79  and  _80
REMARK   30  A    between atoms: _83  and  _85
REMARK   31  A    between atoms: _85  and  _86
REMARK   32  A    between atoms: _85  and  _88
REMARK   33  A    between atoms: _88  and  _89
REMARK   34  A    between atoms: _92  and  _94
REMARK   35  A    between atoms: _94  and  _95
REMARK   36  A    between atoms: _94  and  _97
REMARK   37  A    between atoms: _97  and  _98
REMARK   38  A    between atoms: _98  and  _99
REMARK   39  A    between atoms: _102  and  _104
REMARK   40  A    between atoms: _104  and  _105
REMARK   41  A    between atoms: _104  and  _107
REMARK   42  A    between atoms: _107  and  _108
REMARK   43  A    between atoms: _114  and  _116
REMARK   44  A    between atoms: _116  and  _117
REMARK   45  A    between atoms: _119  and  _121
REMARK   46  A    between atoms: _121  and  _122
REMARK   47  A    between atoms: _124  and  _126
REMARK   48  A    between atoms: _126  and  _127
REMARK   49  A    between atoms: _130  and  _132
REMARK   50  A    between atoms: _132  and  _133
REMARK   51  A    between atoms: _132  and  _135
REMARK   52  A    between atoms: _135  and  _136
REMARK   53  A    between atoms: _136  and  _137
REMARK   54  A    between atoms: _137  and  _138
REMARK   55  A    between atoms: _138  and  _139
REMARK   56  A    between atoms: _143  and  _145
REMARK   57  A    between atoms: _145  and  _146
REMARK   58  A    between atoms: _145  and  _148
REMARK   59  A    between atoms: _148  and  _149
REMARK   60  A    between atoms: _149  and  _150
REMARK   61  A    between atoms: _152  and  _154
REMARK   62  A    between atoms: _154  and  _155
REMARK   63  A    between atoms: _154  and  _157
REMARK   64  A    between atoms: _157  and  _158
REMARK   65  A    between atoms: _163  and  _164
REMARK   66  A    between atoms: _166  and  _168
REMARK   67  A    between atoms: _168  and  _169
REMARK   68  A    between atoms: _168  and  _171
REMARK   69  A    between atoms: _171  and  _172
REMARK   70  A    between atoms: _175  and  _177
REMARK   71  A    between atoms: _177  and  _178
REMARK   72  A    between atoms: _177  and  _180
REMARK   73  A    between atoms: _180  and  _181
REMARK   74  A    between atoms: _187  and  _189
REMARK   75  A    between atoms: _189  and  _190
REMARK   76  A    between atoms: _189  and  _192
REMARK   77  A    between atoms: _192  and  _193
REMARK   78  A    between atoms: _198  and  _199
REMARK   79  A    between atoms: _201  and  _203
REMARK   80  A    between atoms: _203  and  _204
REMARK   81  A    between atoms: _206  and  _208
REMARK   82  A    between atoms: _208  and  _209
REMARK   83  A    between atoms: _211  and  _213
REMARK   84  A    between atoms: _213  and  _214
REMARK   85  A    between atoms: _213  and  _216
REMARK   86  A    between atoms: _216  and  _217
REMARK   87  A    between atoms: _227  and  _229
REMARK   88  A    between atoms: _229  and  _230
REMARK   89  A    between atoms: _229  and  _232
REMARK   90  A    between atoms: _232  and  _233
REMARK   91  A    between atoms: _238  and  _240
REMARK   92  A    between atoms: _240  and  _241
REMARK   93  A    between atoms: _240  and  _243
REMARK   94  A    between atoms: _243  and  _244
REMARK   95  A    between atoms: _249  and  _250
REMARK   96  A    between atoms: _252  and  _254
REMARK   97  A    between atoms: _254  and  _255
REMARK   98  A    between atoms: _254  and  _257
REMARK   99  A    between atoms: _257  and  _258
REMARK  100  A    between atoms: _263  and  _264
REMARK  101  A    between atoms: _266  and  _268
REMARK  102  A    between atoms: _268  and  _269
REMARK  103  A    between atoms: _268  and  _271
REMARK  104  A    between atoms: _271  and  _272
REMARK  105  A    between atoms: _272  and  _273
REMARK  106  A    between atoms: _273  and  _274
REMARK  107  A    between atoms: _283  and  _285
REMARK  108  A    between atoms: _285  and  _286
REMARK  109  A    between atoms: _285  and  _288
REMARK  110  A    between atoms: _288  and  _289
REMARK  111  A    between atoms: _289  and  _290
REMARK  112  A    between atoms: _290  and  _291
REMARK  113  A    between atoms: _291  and  _292
REMARK  114  A    between atoms: _296  and  _298
REMARK  115  A    between atoms: _298  and  _299
REMARK  116  A    between atoms: _298  and  _301
REMARK  117  A    between atoms: _301  and  _302
REMARK  118  A    between atoms: _302  and  _303
REMARK  119  A    between atoms: _306  and  _308
REMARK  120  A    between atoms: _308  and  _309
REMARK  121  A    between atoms: _308  and  _311
REMARK  122  A    between atoms: _314  and  _316
REMARK  123  A    between atoms: _316  and  _317
REMARK  124  A    between atoms: _316  and  _319
REMARK  125  A    between atoms: _319  and  _320
REMARK  126  A    between atoms: _330  and  _332
REMARK  127  A    between atoms: _332  and  _333
REMARK  128  A    between atoms: _332  and  _335
REMARK  129  A    between atoms: _335  and  _336
REMARK  130  A    between atoms: _336  and  _337
REMARK                            x       y       z     vdW  Elec       q    Type
REMARK                         _______ _______ _______ _____ _____    ______ ____
ROOT
ATOM      1  O   HOH     1      12.488  -0.910  27.823  0.00  0.00    +0.000 OA
ENDROOT
TORSDOF 0
REMARK  Name = ../refined-set-2016/3arw/3arw_pocket.pdb
REMARK  130 active torsions:
REMARK  status: ('A' for Active; 'I' for Inactive)
REMARK    1  A    between atoms: _1  and  _3
REMARK    2  A    between atoms: _3  and  _4
REMARK    3  A    between atoms: _3  and  _6
REMARK    4  A    between atoms: _6  and  _7
REMARK    5  A    between atoms: _17  and  _19
REMARK    6  A    between atoms: _19  and  _20
REMARK    7  A    between atoms: _19  and  _22
REMARK    8  A    between atoms: _22  and  _23
REMARK    9  A    between atoms: _29  and  _31
REMARK   10  A    between atoms: _31  and  _32
REMARK   11  A    between atoms: _31  and  _34
REMARK   12  A    between atoms: _34  and  _35
REMARK   13  A    between atoms: _37  and  _39
REMARK   14  A    between atoms: _39  and  _40
REMARK   15  A    between atoms: _39  and  _42
REMARK   16  A    between atoms: _42  and  _43
REMARK   17  A    between atoms: _45  and  _47
REMARK   18  A    between atoms: _47  and  _48
REMARK   19  A    between atoms: _47  and  _50
REMARK   20  A    between atoms: _53  and  _55
REMARK   21  A    between atoms: _55  and  _56
REMARK   22  A    between atoms: _58  and  _60
REMARK   23  A    between atoms: _60  and  _61
REMARK   24  A    between atoms: _60  and  _63
REMARK   25  A    between atoms: _63  and  _64
REMARK   26  A    between atoms: _74  and  _76
REMARK   27  A    between atoms: _76  and  _77
REMARK   28  A    between atoms: _76  and  _79
REMARK   29  A    between atoms: _79  and  _80
REMARK   30  A    between atoms: _83  and  _85
REMARK   31  A    between atoms: _85  and  _86
REMARK   32  A    between atoms: _85  and  _88
REMARK   33  A    between atoms: _88  and  _89
REMARK   34  A    between atoms: _92  and  _94
REMARK   35  A    between atoms: _94  and  _95
REMARK   36  A    between atoms: _94  and  _97
REMARK   37  A    between atoms: _97  and  _98
REMARK   38  A    between atoms: _98  and  _99
REMARK   39  A    between atoms: _102  and  _104
REMARK   40  A    between atoms: _104  and  _105
REMARK   41  A    between atoms: _104  and  _107
REMARK   42  A    between atoms: _107  and  _108
REMARK   43  A    between atoms: _114  and  _116
REMARK   44  A    between atoms: _116  and  _117
REMARK   45  A    between atoms: _119  and  _121
REMARK   46  A    between atoms: _121  and  _122
REMARK   47  A    between atoms: _124  and  _126
REMARK   48  A    between atoms: _126  and  _127
REMARK   49  A    between atoms: _130  and  _132
REMARK   50  A    between atoms: _132  and  _133
REMARK   51  A    between atoms: _132  and  _135
REMARK   52  A    between atoms: _135  and  _136
REMARK   53  A    between atoms: _136  and  _137
REMARK   54  A    between atoms: _137  and  _138
REMARK   55  A    between atoms: _138  and  _139
REMARK   56  A    between atoms: _143  and  _145
REMARK   57  A    between atoms: _145  and  _146
REMARK   58  A    between atoms: _145  and  _148
REMARK   59  A    between atoms: _148  and  _149
REMARK   60  A    between atoms: _149  and  _150
REMARK   61  A    between atoms: _152  and  _154
REMARK   62  A    between atoms: _154  and  _155
REMARK   63  A    between atoms: _154  and  _157
REMARK   64  A    between atoms: _157  and  _158
REMARK   65  A    between atoms: _163  and  _164
REMARK   66  A    between atoms: _166  and  _168
REMARK   67  A    between atoms: _168  and  _169
REMARK   68  A    between atoms: _168  and  _171
REMARK   69  A    between atoms: _171  and  _172
REMARK   70  A    between atoms: _175  and  _177
REMARK   71  A    between atoms: _177  and  _178
REMARK   72  A    between atoms: _177  and  _180
REMARK   73  A    between atoms: _180  and  _181
REMARK   74  A    between atoms: _187  and  _189
REMARK   75  A    between atoms: _189  and  _190
REMARK   76  A    between atoms: _189  and  _192
REMARK   77  A    between atoms: _192  and  _193
REMARK   78  A    between atoms: _198  and  _199
REMARK   79  A    between atoms: _201  and  _203
REMARK   80  A    between atoms: _203  and  _204
REMARK   81  A    between atoms: _206  and  _208
REMARK   82  A    between atoms: _208  and  _209
REMARK   83  A    between atoms: _211  and  _213
REMARK   84  A    between atoms: _213  and  _214
REMARK   85  A    between atoms: _213  and  _216
REMARK   86  A    between atoms: _216  and  _217
REMARK   87  A    between atoms: _227  and  _229
REMARK   88  A    between atoms: _229  and  _230
REMARK   89  A    between atoms: _229  and  _232
REMARK   90  A    between atoms: _232  and  _233
REMARK   91  A    between atoms: _238  and  _240
REMARK   92  A    between atoms: _240  and  _241
REMARK   93  A    between atoms: _240  and  _243
REMARK   94  A    between atoms: _243  and  _244
REMARK   95  A    between atoms: _249  and  _250
REMARK   96  A    between atoms: _252  and  _254
REMARK   97  A    between atoms: _254  and  _255
REMARK   98  A    between atoms: _254  and  _257
REMARK   99  A    between atoms: _257  and  _258
REMARK  100  A    between atoms: _263  and  _264
REMARK  101  A    between atoms: _266  and  _268
REMARK  102  A    between atoms: _268  and  _269
REMARK  103  A    between atoms: _268  and  _271
REMARK  104  A    between atoms: _271  and  _272
REMARK  105  A    between atoms: _272  and  _273
REMARK  106  A    between atoms: _273  and  _274
REMARK  107  A    between atoms: _283  and  _285
REMARK  108  A    between atoms: _285  and  _286
REMARK  109  A    between atoms: _285  and  _288
REMARK  110  A    between atoms: _288  and  _289
REMARK  111  A    between atoms: _289  and  _290
REMARK  112  A    between atoms: _290  and  _291
REMARK  113  A    between atoms: _291  and  _292
REMARK  114  A    between atoms: _296  and  _298
REMARK  115  A    between atoms: _298  and  _299
REMARK  116  A    between atoms: _298  and  _301
REMARK  117  A    between atoms: _301  and  _302
REMARK  118  A    between atoms: _302  and  _303
REMARK  119  A    between atoms: _306  and  _308
REMARK  120  A    between atoms: _308  and  _309
REMARK  121  A    between atoms: _308  and  _311
REMARK  122  A    between atoms: _314  and  _316
REMARK  123  A    between atoms: _316  and  _317
REMARK  124  A    between atoms: _316  and  _319
REMARK  125  A    between atoms: _319  and  _320
REMARK  126  A    between atoms: _330  and  _332
REMARK  127  A    between atoms: _332  and  _333
REMARK  128  A    between atoms: _332  and  _335
REMARK  129  A    between atoms: _335  and  _336
REMARK  130  A    between atoms: _336  and  _337
REMARK                            x       y       z     vdW  Elec       q    Type
REMARK                         _______ _______ _______ _____ _____    ______ ____
ROOT
ATOM      1  O   HOH     1      23.712 -11.370  25.405  0.00  0.00    +0.000 OA
ENDROOT
TORSDOF 0
REMARK  Name = ../refined-set-2016/3arw/3arw_pocket.pdb
REMARK  130 active torsions:
REMARK  status: ('A' for Active; 'I' for Inactive)
REMARK    1  A    between atoms: _1  and  _3
REMARK    2  A    between atoms: _3  and  _4
REMARK    3  A    between atoms: _3  and  _6
REMARK    4  A    between atoms: _6  and  _7
REMARK    5  A    between atoms: _17  and  _19
REMARK    6  A    between atoms: _19  and  _20
REMARK    7  A    between atoms: _19  and  _22
REMARK    8  A    between atoms: _22  and  _23
REMARK    9  A    between atoms: _29  and  _31
REMARK   10  A    between atoms: _31  and  _32
REMARK   11  A    between atoms: _31  and  _34
REMARK   12  A    between atoms: _34  and  _35
REMARK   13  A    between atoms: _37  and  _39
REMARK   14  A    between atoms: _39  and  _40
REMARK   15  A    between atoms: _39  and  _42
REMARK   16  A    between atoms: _42  and  _43
REMARK   17  A    between atoms: _45  and  _47
REMARK   18  A    between atoms: _47  and  _48
REMARK   19  A    between atoms: _47  and  _50
REMARK   20  A    between atoms: _53  and  _55
REMARK   21  A    between atoms: _55  and  _56
REMARK   22  A    between atoms: _58  and  _60
REMARK   23  A    between atoms: _60  and  _61
REMARK   24  A    between atoms: _60  and  _63
REMARK   25  A    between atoms: _63  and  _64
REMARK   26  A    between atoms: _74  and  _76
REMARK   27  A    between atoms: _76  and  _77
REMARK   28  A    between atoms: _76  and  _79
REMARK   29  A    between atoms: _79  and  _80
REMARK   30  A    between atoms: _83  and  _85
REMARK   31  A    between atoms: _85  and  _86
REMARK   32  A    between atoms: _85  and  _88
REMARK   33  A    between atoms: _88  and  _89
REMARK   34  A    between atoms: _92  and  _94
REMARK   35  A    between atoms: _94  and  _95
REMARK   36  A    between atoms: _94  and  _97
REMARK   37  A    between atoms: _97  and  _98
REMARK   38  A    between atoms: _98  and  _99
REMARK   39  A    between atoms: _102  and  _104
REMARK   40  A    between atoms: _104  and  _105
REMARK   41  A    between atoms: _104  and  _107
REMARK   42  A    between atoms: _107  and  _108
REMARK   43  A    between atoms: _114  and  _116
REMARK   44  A    between atoms: _116  and  _117
REMARK   45  A    between atoms: _119  and  _121
REMARK   46  A    between atoms: _121  and  _122
REMARK   47  A    between atoms: _124  and  _126
REMARK   48  A    between atoms: _126  and  _127
REMARK   49  A    between atoms: _130  and  _132
REMARK   50  A    between atoms: _132  and  _133
REMARK   51  A    between atoms: _132  and  _135
REMARK   52  A    between atoms: _135  and  _136
REMARK   53  A    between atoms: _136  and  _137
REMARK   54  A    between atoms: _137  and  _138
REMARK   55  A    between atoms: _138  and  _139
REMARK   56  A    between atoms: _143  and  _145
REMARK   57  A    between atoms: _145  and  _146
REMARK   58  A    between atoms: _145  and  _148
REMARK   59  A    between atoms: _148  and  _149
REMARK   60  A    between atoms: _149  and  _150
REMARK   61  A    between atoms: _152  and  _154
REMARK   62  A    between atoms: _154  and  _155
REMARK   63  A    between atoms: _154  and  _157
REMARK   64  A    between atoms: _157  and  _158
REMARK   65  A    between atoms: _163  and  _164
REMARK   66  A    between atoms: _166  and  _168
REMARK   67  A    between atoms: _168  and  _169
REMARK   68  A    between atoms: _168  and  _171
REMARK   69  A    between atoms: _171  and  _172
REMARK   70  A    between atoms: _175  and  _177
REMARK   71  A    between atoms: _177  and  _178
REMARK   72  A    between atoms: _177  and  _180
REMARK   73  A    between atoms: _180  and  _181
REMARK   74  A    between atoms: _187  and  _189
REMARK   75  A    between atoms: _189  and  _190
REMARK   76  A    between atoms: _189  and  _192
REMARK   77  A    between atoms: _192  and  _193
REMARK   78  A    between atoms: _198  and  _199
REMARK   79  A    between atoms: _201  and  _203
REMARK   80  A    between atoms: _203  and  _204
REMARK   81  A    between atoms: _206  and  _208
REMARK   82  A    between atoms: _208  and  _209
REMARK   83  A    between atoms: _211  and  _213
REMARK   84  A    between atoms: _213  and  _214
REMARK   85  A    between atoms: _213  and  _216
REMARK   86  A    between atoms: _216  and  _217
REMARK   87  A    between atoms: _227  and  _229
REMARK   88  A    between atoms: _229  and  _230
REMARK   89  A    between atoms: _229  and  _232
REMARK   90  A    between atoms: _232  and  _233
REMARK   91  A    between atoms: _238  and  _240
REMARK   92  A    between atoms: _240  and  _241
REMARK   93  A    between atoms: _240  and  _243
REMARK   94  A    between atoms: _243  and  _244
REMARK   95  A    between atoms: _249  and  _250
REMARK   96  A    between atoms: _252  and  _254
REMARK   97  A    between atoms: _254  and  _255
REMARK   98  A    between atoms: _254  and  _257
REMARK   99  A    between atoms: _257  and  _258
REMARK  100  A    between atoms: _263  and  _264
REMARK  101  A    between atoms: _266  and  _268
REMARK  102  A    between atoms: _268  and  _269
REMARK  103  A    between atoms: _268  and  _271
REMARK  104  A    between atoms: _271  and  _272
REMARK  105  A    between atoms: _272  and  _273
REMARK  106  A    between atoms: _273  and  _274
REMARK  107  A    between atoms: _283  and  _285
REMARK  108  A    between atoms: _285  and  _286
REMARK  109  A    between atoms: _285  and  _288
REMARK  110  A    between atoms: _288  and  _289
REMARK  111  A    between atoms: _289  and  _290
REMARK  112  A    between atoms: _290  and  _291
REMARK  113  A    between atoms: _291  and  _292
REMARK  114  A    between atoms: _296  and  _298
REMARK  115  A    between atoms: _298  and  _299
REMARK  116  A    between atoms: _298  and  _301
REMARK  117  A    between atoms: _301  and  _302
REMARK  118  A    between atoms: _302  and  _303
REMARK  119  A    between atoms: _306  and  _308
REMARK  120  A    between atoms: _308  and  _309
REMARK  121  A    between atoms: _308  and  _311
REMARK  122  A    between atoms: _314  and  _316
REMARK  123  A    between atoms: _316  and  _317
REMARK  124  A    between atoms: _316  and  _319
REMARK  125  A    between atoms: _319  and  _320
REMARK  126  A    between atoms: _330  and  _332
REMARK  127  A    between atoms: _332  and  _333
REMARK  128  A    between atoms: _332  and  _335
REMARK  129  A    between atoms: _335  and  _336
REMARK  130  A    between atoms: _336  and  _337
REMARK                            x       y       z     vdW  Elec       q    Type
REMARK                         _______ _______ _______ _____ _____    ______ ____
ROOT
ATOM      1  O   HOH     1      11.232  -3.277  21.434  0.00  0.00    +0.000 OA
ENDROOT
TORSDOF 0
REMARK  Name = ../refined-set-2016/3arw/3arw_pocket.pdb
REMARK  130 active torsions:
REMARK  status: ('A' for Active; 'I' for Inactive)
REMARK    1  A    between atoms: _1  and  _3
REMARK    2  A    between atoms: _3  and  _4
REMARK    3  A    between atoms: _3  and  _6
REMARK    4  A    between atoms: _6  and  _7
REMARK    5  A    between atoms: _17  and  _19
REMARK    6  A    between atoms: _19  and  _20
REMARK    7  A    between atoms: _19  and  _22
REMARK    8  A    between atoms: _22  and  _23
REMARK    9  A    between atoms: _29  and  _31
REMARK   10  A    between atoms: _31  and  _32
REMARK   11  A    between atoms: _31  and  _34
REMARK   12  A    between atoms: _34  and  _35
REMARK   13  A    between atoms: _37  and  _39
REMARK   14  A    between atoms: _39  and  _40
REMARK   15  A    between atoms: _39  and  _42
REMARK   16  A    between atoms: _42  and  _43
REMARK   17  A    between atoms: _45  and  _47
REMARK   18  A    between atoms: _47  and  _48
REMARK   19  A    between atoms: _47  and  _50
REMARK   20  A    between atoms: _53  and  _55
REMARK   21  A    between atoms: _55  and  _56
REMARK   22  A    between atoms: _58  and  _60
REMARK   23  A    between atoms: _60  and  _61
REMARK   24  A    between atoms: _60  and  _63
REMARK   25  A    between atoms: _63  and  _64
REMARK   26  A    between atoms: _74  and  _76
REMARK   27  A    between atoms: _76  and  _77
REMARK   28  A    between atoms: _76  and  _79
REMARK   29  A    between atoms: _79  and  _80
REMARK   30  A    between atoms: _83  and  _85
REMARK   31  A    between atoms: _85  and  _86
REMARK   32  A    between atoms: _85  and  _88
REMARK   33  A    between atoms: _88  and  _89
REMARK   34  A    between atoms: _92  and  _94
REMARK   35  A    between atoms: _94  and  _95
REMARK   36  A    between atoms: _94  and  _97
REMARK   37  A    between atoms: _97  and  _98
REMARK   38  A    between atoms: _98  and  _99
REMARK   39  A    between atoms: _102  and  _104
REMARK   40  A    between atoms: _104  and  _105
REMARK   41  A    between atoms: _104  and  _107
REMARK   42  A    between atoms: _107  and  _108
REMARK   43  A    between atoms: _114  and  _116
REMARK   44  A    between atoms: _116  and  _117
REMARK   45  A    between atoms: _119  and  _121
REMARK   46  A    between atoms: _121  and  _122
REMARK   47  A    between atoms: _124  and  _126
REMARK   48  A    between atoms: _126  and  _127
REMARK   49  A    between atoms: _130  and  _132
REMARK   50  A    between atoms: _132  and  _133
REMARK   51  A    between atoms: _132  and  _135
REMARK   52  A    between atoms: _135  and  _136
REMARK   53  A    between atoms: _136  and  _137
REMARK   54  A    between atoms: _137  and  _138
REMARK   55  A    between atoms: _138  and  _139
REMARK   56  A    between atoms: _143  and  _145
REMARK   57  A    between atoms: _145  and  _146
REMARK   58  A    between atoms: _145  and  _148
REMARK   59  A    between atoms: _148  and  _149
REMARK   60  A    between atoms: _149  and  _150
REMARK   61  A    between atoms: _152  and  _154
REMARK   62  A    between atoms: _154  and  _155
REMARK   63  A    between atoms: _154  and  _157
REMARK   64  A    between atoms: _157  and  _158
REMARK   65  A    between atoms: _163  and  _164
REMARK   66  A    between atoms: _166  and  _168
REMARK   67  A    between atoms: _168  and  _169
REMARK   68  A    between atoms: _168  and  _171
REMARK   69  A    between atoms: _171  and  _172
REMARK   70  A    between atoms: _175  and  _177
REMARK   71  A    between atoms: _177  and  _178
REMARK   72  A    between atoms: _177  and  _180
REMARK   73  A    between atoms: _180  and  _181
REMARK   74  A    between atoms: _187  and  _189
REMARK   75  A    between atoms: _189  and  _190
REMARK   76  A    between atoms: _189  and  _192
REMARK   77  A    between atoms: _192  and  _193
REMARK   78  A    between atoms: _198  and  _199
REMARK   79  A    between atoms: _201  and  _203
REMARK   80  A    between atoms: _203  and  _204
REMARK   81  A    between atoms: _206  and  _208
REMARK   82  A    between atoms: _208  and  _209
REMARK   83  A    between atoms: _211  and  _213
REMARK   84  A    between atoms: _213  and  _214
REMARK   85  A    between atoms: _213  and  _216
REMARK   86  A    between atoms: _216  and  _217
REMARK   87  A    between atoms: _227  and  _229
REMARK   88  A    between atoms: _229  and  _230
REMARK   89  A    between atoms: _229  and  _232
REMARK   90  A    between atoms: _232  and  _233
REMARK   91  A    between atoms: _238  and  _240
REMARK   92  A    between atoms: _240  and  _241
REMARK   93  A    between atoms: _240  and  _243
REMARK   94  A    between atoms: _243  and  _244
REMARK   95  A    between atoms: _249  and  _250
REMARK   96  A    between atoms: _252  and  _254
REMARK   97  A    between atoms: _254  and  _255
REMARK   98  A    between atoms: _254  and  _257
REMARK   99  A    between atoms: _257  and  _258
REMARK  100  A    between atoms: _263  and  _264
REMARK  101  A    between atoms: _266  and  _268
REMARK  102  A    between atoms: _268  and  _269
REMARK  103  A    between atoms: _268  and  _271
REMARK  104  A    between atoms: _271  and  _272
REMARK  105  A    between atoms: _272  and  _273
REMARK  106  A    between atoms: _273  and  _274
REMARK  107  A    between atoms: _283  and  _285
REMARK  108  A    between atoms: _285  and  _286
REMARK  109  A    between atoms: _285  and  _288
REMARK  110  A    between atoms: _288  and  _289
REMARK  111  A    between atoms: _289  and  _290
REMARK  112  A    between atoms: _290  and  _291
REMARK  113  A    between atoms: _291  and  _292
REMARK  114  A    between atoms: _296  and  _298
REMARK  115  A    between atoms: _298  and  _299
REMARK  116  A    between atoms: _298  and  _301
REMARK  117  A    between atoms: _301  and  _302
REMARK  118  A    between atoms: _302  and  _303
REMARK  119  A    between atoms: _306  and  _308
REMARK  120  A    between atoms: _308  and  _309
REMARK  121  A    between atoms: _308  and  _311
REMARK  122  A    between atoms: _314  and  _316
REMARK  123  A    between atoms: _316  and  _317
REMARK  124  A    between atoms: _316  and  _319
REMARK  125  A    between atoms: _319  and  _320
REMARK  126  A    between atoms: _330  and  _332
REMARK  127  A    between atoms: _332  and  _333
REMARK  128  A    between atoms: _332  and  _335
REMARK  129  A    between atoms: _335  and  _336
REMARK  130  A    between atoms: _336  and  _337
REMARK                            x       y       z     vdW  Elec       q    Type
REMARK                         _______ _______ _______ _____ _____    ______ ____
ROOT
ATOM      1  O   HOH     1      21.915 -18.141  19.520  0.00  0.00    +0.000 OA
ENDROOT
TORSDOF 0
REMARK  Name = ../refined-set-2016/3arw/3arw_pocket.pdb
REMARK  130 active torsions:
REMARK  status: ('A' for Active; 'I' for Inactive)
REMARK    1  A    between atoms: _1  and  _3
REMARK    2  A    between atoms: _3  and  _4
REMARK    3  A    between atoms: _3  and  _6
REMARK    4  A    between atoms: _6  and  _7
REMARK    5  A    between atoms: _17  and  _19
REMARK    6  A    between atoms: _19  and  _20
REMARK    7  A    between atoms: _19  and  _22
REMARK    8  A    between atoms: _22  and  _23
REMARK    9  A    between atoms: _29  and  _31
REMARK   10  A    between atoms: _31  and  _32
REMARK   11  A    between atoms: _31  and  _34
REMARK   12  A    between atoms: _34  and  _35
REMARK   13  A    between atoms: _37  and  _39
REMARK   14  A    between atoms: _39  and  _40
REMARK   15  A    between atoms: _39  and  _42
REMARK   16  A    between atoms: _42  and  _43
REMARK   17  A    between atoms: _45  and  _47
REMARK   18  A    between atoms: _47  and  _48
REMARK   19  A    between atoms: _47  and  _50
REMARK   20  A    between atoms: _53  and  _55
REMARK   21  A    between atoms: _55  and  _56
REMARK   22  A    between atoms: _58  and  _60
REMARK   23  A    between atoms: _60  and  _61
REMARK   24  A    between atoms: _60  and  _63
REMARK   25  A    between atoms: _63  and  _64
REMARK   26  A    between atoms: _74  and  _76
REMARK   27  A    between atoms: _76  and  _77
REMARK   28  A    between atoms: _76  and  _79
REMARK   29  A    between atoms: _79  and  _80
REMARK   30  A    between atoms: _83  and  _85
REMARK   31  A    between atoms: _85  and  _86
REMARK   32  A    between atoms: _85  and  _88
REMARK   33  A    between atoms: _88  and  _89
REMARK   34  A    between atoms: _92  and  _94
REMARK   35  A    between atoms: _94  and  _95
REMARK   36  A    between atoms: _94  and  _97
REMARK   37  A    between atoms: _97  and  _98
REMARK   38  A    between atoms: _98  and  _99
REMARK   39  A    between atoms: _102  and  _104
REMARK   40  A    between atoms: _104  and  _105
REMARK   41  A    between atoms: _104  and  _107
REMARK   42  A    between atoms: _107  and  _108
REMARK   43  A    between atoms: _114  and  _116
REMARK   44  A    between atoms: _116  and  _117
REMARK   45  A    between atoms: _119  and  _121
REMARK   46  A    between atoms: _121  and  _122
REMARK   47  A    between atoms: _124  and  _126
REMARK   48  A    between atoms: _126  and  _127
REMARK   49  A    between atoms: _130  and  _132
REMARK   50  A    between atoms: _132  and  _133
REMARK   51  A    between atoms: _132  and  _135
REMARK   52  A    between atoms: _135  and  _136
REMARK   53  A    between atoms: _136  and  _137
REMARK   54  A    between atoms: _137  and  _138
REMARK   55  A    between atoms: _138  and  _139
REMARK   56  A    between atoms: _143  and  _145
REMARK   57  A    between atoms: _145  and  _146
REMARK   58  A    between atoms: _145  and  _148
REMARK   59  A    between atoms: _148  and  _149
REMARK   60  A    between atoms: _149  and  _150
REMARK   61  A    between atoms: _152  and  _154
REMARK   62  A    between atoms: _154  and  _155
REMARK   63  A    between atoms: _154  and  _157
REMARK   64  A    between atoms: _157  and  _158
REMARK   65  A    between atoms: _163  and  _164
REMARK   66  A    between atoms: _166  and  _168
REMARK   67  A    between atoms: _168  and  _169
REMARK   68  A    between atoms: _168  and  _171
REMARK   69  A    between atoms: _171  and  _172
REMARK   70  A    between atoms: _175  and  _177
REMARK   71  A    between atoms: _177  and  _178
REMARK   72  A    between atoms: _177  and  _180
REMARK   73  A    between atoms: _180  and  _181
REMARK   74  A    between atoms: _187  and  _189
REMARK   75  A    between atoms: _189  and  _190
REMARK   76  A    between atoms: _189  and  _192
REMARK   77  A    between atoms: _192  and  _193
REMARK   78  A    between atoms: _198  and  _199
REMARK   79  A    between atoms: _201  and  _203
REMARK   80  A    between atoms: _203  and  _204
REMARK   81  A    between atoms: _206  and  _208
REMARK   82  A    between atoms: _208  and  _209
REMARK   83  A    between atoms: _211  and  _213
REMARK   84  A    between atoms: _213  and  _214
REMARK   85  A    between atoms: _213  and  _216
REMARK   86  A    between atoms: _216  and  _217
REMARK   87  A    between atoms: _227  and  _229
REMARK   88  A    between atoms: _229  and  _230
REMARK   89  A    between atoms: _229  and  _232
REMARK   90  A    between atoms: _232  and  _233
REMARK   91  A    between atoms: _238  and  _240
REMARK   92  A    between atoms: _240  and  _241
REMARK   93  A    between atoms: _240  and  _243
REMARK   94  A    between atoms: _243  and  _244
REMARK   95  A    between atoms: _249  and  _250
REMARK   96  A    between atoms: _252  and  _254
REMARK   97  A    between atoms: _254  and  _255
REMARK   98  A    between atoms: _254  and  _257
REMARK   99  A    between atoms: _257  and  _258
REMARK  100  A    between atoms: _263  and  _264
REMARK  101  A    between atoms: _266  and  _268
REMARK  102  A    between atoms: _268  and  _269
REMARK  103  A    between atoms: _268  and  _271
REMARK  104  A    between atoms: _271  and  _272
REMARK  105  A    between atoms: _272  and  _273
REMARK  106  A    between atoms: _273  and  _274
REMARK  107  A    between atoms: _283  and  _285
REMARK  108  A    between atoms: _285  and  _286
REMARK  109  A    between atoms: _285  and  _288
REMARK  110  A    between atoms: _288  and  _289
REMARK  111  A    between atoms: _289  and  _290
REMARK  112  A    between atoms: _290  and  _291
REMARK  113  A    between atoms: _291  and  _292
REMARK  114  A    between atoms: _296  and  _298
REMARK  115  A    between atoms: _298  and  _299
REMARK  116  A    between atoms: _298  and  _301
REMARK  117  A    between atoms: _301  and  _302
REMARK  118  A    between atoms: _302  and  _303
REMARK  119  A    between atoms: _306  and  _308
REMARK  120  A    between atoms: _308  and  _309
REMARK  121  A    between atoms: _308  and  _311
REMARK  122  A    between atoms: _314  and  _316
REMARK  123  A    between atoms: _316  and  _317
REMARK  124  A    between atoms: _316  and  _319
REMARK  125  A    between atoms: _319  and  _320
REMARK  126  A    between atoms: _330  and  _332
REMARK  127  A    between atoms: _332  and  _333
REMARK  128  A    between atoms: _332  and  _335
REMARK  129  A    between atoms: _335  and  _336
REMARK  130  A    between atoms: _336  and  _337
REMARK                            x       y       z     vdW  Elec       q    Type
REMARK                         _______ _______ _______ _____ _____    ______ ____
ROOT
ATOM      1  O   HOH     1      24.377 -16.094  24.779  0.00  0.00    +0.000 OA
ENDROOT
TORSDOF 0
REMARK  Name = ../refined-set-2016/3arw/3arw_pocket.pdb
REMARK  130 active torsions:
REMARK  status: ('A' for Active; 'I' for Inactive)
REMARK    1  A    between atoms: _1  and  _3
REMARK    2  A    between atoms: _3  and  _4
REMARK    3  A    between atoms: _3  and  _6
REMARK    4  A    between atoms: _6  and  _7
REMARK    5  A    between atoms: _17  and  _19
REMARK    6  A    between atoms: _19  and  _20
REMARK    7  A    between atoms: _19  and  _22
REMARK    8  A    between atoms: _22  and  _23
REMARK    9  A    between atoms: _29  and  _31
REMARK   10  A    between atoms: _31  and  _32
REMARK   11  A    between atoms: _31  and  _34
REMARK   12  A    between atoms: _34  and  _35
REMARK   13  A    between atoms: _37  and  _39
REMARK   14  A    between atoms: _39  and  _40
REMARK   15  A    between atoms: _39  and  _42
REMARK   16  A    between atoms: _42  and  _43
REMARK   17  A    between atoms: _45  and  _47
REMARK   18  A    between atoms: _47  and  _48
REMARK   19  A    between atoms: _47  and  _50
REMARK   20  A    between atoms: _53  and  _55
REMARK   21  A    between atoms: _55  and  _56
REMARK   22  A    between atoms: _58  and  _60
REMARK   23  A    between atoms: _60  and  _61
REMARK   24  A    between atoms: _60  and  _63
REMARK   25  A    between atoms: _63  and  _64
REMARK   26  A    between atoms: _74  and  _76
REMARK   27  A    between atoms: _76  and  _77
REMARK   28  A    between atoms: _76  and  _79
REMARK   29  A    between atoms: _79  and  _80
REMARK   30  A    between atoms: _83  and  _85
REMARK   31  A    between atoms: _85  and  _86
REMARK   32  A    between atoms: _85  and  _88
REMARK   33  A    between atoms: _88  and  _89
REMARK   34  A    between atoms: _92  and  _94
REMARK   35  A    between atoms: _94  and  _95
REMARK   36  A    between atoms: _94  and  _97
REMARK   37  A    between atoms: _97  and  _98
REMARK   38  A    between atoms: _98  and  _99
REMARK   39  A    between atoms: _102  and  _104
REMARK   40  A    between atoms: _104  and  _105
REMARK   41  A    between atoms: _104  and  _107
REMARK   42  A    between atoms: _107  and  _108
REMARK   43  A    between atoms: _114  and  _116
REMARK   44  A    between atoms: _116  and  _117
REMARK   45  A    between atoms: _119  and  _121
REMARK   46  A    between atoms: _121  and  _122
REMARK   47  A    between atoms: _124  and  _126
REMARK   48  A    between atoms: _126  and  _127
REMARK   49  A    between atoms: _130  and  _132
REMARK   50  A    between atoms: _132  and  _133
REMARK   51  A    between atoms: _132  and  _135
REMARK   52  A    between atoms: _135  and  _136
REMARK   53  A    between atoms: _136  and  _137
REMARK   54  A    between atoms: _137  and  _138
REMARK   55  A    between atoms: _138  and  _139
REMARK   56  A    between atoms: _143  and  _145
REMARK   57  A    between atoms: _145  and  _146
REMARK   58  A    between atoms: _145  and  _148
REMARK   59  A    between atoms: _148  and  _149
REMARK   60  A    between atoms: _149  and  _150
REMARK   61  A    between atoms: _152  and  _154
REMARK   62  A    between atoms: _154  and  _155
REMARK   63  A    between atoms: _154  and  _157
REMARK   64  A    between atoms: _157  and  _158
REMARK   65  A    between atoms: _163  and  _164
REMARK   66  A    between atoms: _166  and  _168
REMARK   67  A    between atoms: _168  and  _169
REMARK   68  A    between atoms: _168  and  _171
REMARK   69  A    between atoms: _171  and  _172
REMARK   70  A    between atoms: _175  and  _177
REMARK   71  A    between atoms: _177  and  _178
REMARK   72  A    between atoms: _177  and  _180
REMARK   73  A    between atoms: _180  and  _181
REMARK   74  A    between atoms: _187  and  _189
REMARK   75  A    between atoms: _189  and  _190
REMARK   76  A    between atoms: _189  and  _192
REMARK   77  A    between atoms: _192  and  _193
REMARK   78  A    between atoms: _198  and  _199
REMARK   79  A    between atoms: _201  and  _203
REMARK   80  A    between atoms: _203  and  _204
REMARK   81  A    between atoms: _206  and  _208
REMARK   82  A    between atoms: _208  and  _209
REMARK   83  A    between atoms: _211  and  _213
REMARK   84  A    between atoms: _213  and  _214
REMARK   85  A    between atoms: _213  and  _216
REMARK   86  A    between atoms: _216  and  _217
REMARK   87  A    between atoms: _227  and  _229
REMARK   88  A    between atoms: _229  and  _230
REMARK   89  A    between atoms: _229  and  _232
REMARK   90  A    between atoms: _232  and  _233
REMARK   91  A    between atoms: _238  and  _240
REMARK   92  A    between atoms: _240  and  _241
REMARK   93  A    between atoms: _240  and  _243
REMARK   94  A    between atoms: _243  and  _244
REMARK   95  A    between atoms: _249  and  _250
REMARK   96  A    between atoms: _252  and  _254
REMARK   97  A    between atoms: _254  and  _255
REMARK   98  A    between atoms: _254  and  _257
REMARK   99  A    between atoms: _257  and  _258
REMARK  100  A    between atoms: _263  and  _264
REMARK  101  A    between atoms: _266  and  _268
REMARK  102  A    between atoms: _268  and  _269
REMARK  103  A    between atoms: _268  and  _271
REMARK  104  A    between atoms: _271  and  _272
REMARK  105  A    between atoms: _272  and  _273
REMARK  106  A    between atoms: _273  and  _274
REMARK  107  A    between atoms: _283  and  _285
REMARK  108  A    between atoms: _285  and  _286
REMARK  109  A    between atoms: _285  and  _288
REMARK  110  A    between atoms: _288  and  _289
REMARK  111  A    between atoms: _289  and  _290
REMARK  112  A    between atoms: _290  and  _291
REMARK  113  A    between atoms: _291  and  _292
REMARK  114  A    between atoms: _296  and  _298
REMARK  115  A    between atoms: _298  and  _299
REMARK  116  A    between atoms: _298  and  _301
REMARK  117  A    between atoms: _301  and  _302
REMARK  118  A    between atoms: _302  and  _303
REMARK  119  A    between atoms: _306  and  _308
REMARK  120  A    between atoms: _308  and  _309
REMARK  121  A    between atoms: _308  and  _311
REMARK  122  A    between atoms: _314  and  _316
REMARK  123  A    between atoms: _316  and  _317
REMARK  124  A    between atoms: _316  and  _319
REMARK  125  A    between atoms: _319  and  _320
REMARK  126  A    between atoms: _330  and  _332
REMARK  127  A    between atoms: _332  and  _333
REMARK  128  A    between atoms: _332  and  _335
REMARK  129  A    between atoms: _335  and  _336
REMARK  130  A    between atoms: _336  and  _337
REMARK                            x       y       z     vdW  Elec       q    Type
REMARK                         _______ _______ _______ _____ _____    ______ ____
ROOT
ATOM      1  O   HOH     1       9.531  -1.242  21.742  0.00  0.00    +0.000 OA
ENDROOT
TORSDOF 0
REMARK  Name = ../refined-set-2016/3arw/3arw_pocket.pdb
REMARK  130 active torsions:
REMARK  status: ('A' for Active; 'I' for Inactive)
REMARK    1  A    between atoms: _1  and  _3
REMARK    2  A    between atoms: _3  and  _4
REMARK    3  A    between atoms: _3  and  _6
REMARK    4  A    between atoms: _6  and  _7
REMARK    5  A    between atoms: _17  and  _19
REMARK    6  A    between atoms: _19  and  _20
REMARK    7  A    between atoms: _19  and  _22
REMARK    8  A    between atoms: _22  and  _23
REMARK    9  A    between atoms: _29  and  _31
REMARK   10  A    between atoms: _31  and  _32
REMARK   11  A    between atoms: _31  and  _34
REMARK   12  A    between atoms: _34  and  _35
REMARK   13  A    between atoms: _37  and  _39
REMARK   14  A    between atoms: _39  and  _40
REMARK   15  A    between atoms: _39  and  _42
REMARK   16  A    between atoms: _42  and  _43
REMARK   17  A    between atoms: _45  and  _47
REMARK   18  A    between atoms: _47  and  _48
REMARK   19  A    between atoms: _47  and  _50
REMARK   20  A    between atoms: _53  and  _55
REMARK   21  A    between atoms: _55  and  _56
REMARK   22  A    between atoms: _58  and  _60
REMARK   23  A    between atoms: _60  and  _61
REMARK   24  A    between atoms: _60  and  _63
REMARK   25  A    between atoms: _63  and  _64
REMARK   26  A    between atoms: _74  and  _76
REMARK   27  A    between atoms: _76  and  _77
REMARK   28  A    between atoms: _76  and  _79
REMARK   29  A    between atoms: _79  and  _80
REMARK   30  A    between atoms: _83  and  _85
REMARK   31  A    between atoms: _85  and  _86
REMARK   32  A    between atoms: _85  and  _88
REMARK   33  A    between atoms: _88  and  _89
REMARK   34  A    between atoms: _92  and  _94
REMARK   35  A    between atoms: _94  and  _95
REMARK   36  A    between atoms: _94  and  _97
REMARK   37  A    between atoms: _97  and  _98
REMARK   38  A    between atoms: _98  and  _99
REMARK   39  A    between atoms: _102  and  _104
REMARK   40  A    between atoms: _104  and  _105
REMARK   41  A    between atoms: _104  and  _107
REMARK   42  A    between atoms: _107  and  _108
REMARK   43  A    between atoms: _114  and  _116
REMARK   44  A    between atoms: _116  and  _117
REMARK   45  A    between atoms: _119  and  _121
REMARK   46  A    between atoms: _121  and  _122
REMARK   47  A    between atoms: _124  and  _126
REMARK   48  A    between atoms: _126  and  _127
REMARK   49  A    between atoms: _130  and  _132
REMARK   50  A    between atoms: _132  and  _133
REMARK   51  A    between atoms: _132  and  _135
REMARK   52  A    between atoms: _135  and  _136
REMARK   53  A    between atoms: _136  and  _137
REMARK   54  A    between atoms: _137  and  _138
REMARK   55  A    between atoms: _138  and  _139
REMARK   56  A    between atoms: _143  and  _145
REMARK   57  A    between atoms: _145  and  _146
REMARK   58  A    between atoms: _145  and  _148
REMARK   59  A    between atoms: _148  and  _149
REMARK   60  A    between atoms: _149  and  _150
REMARK   61  A    between atoms: _152  and  _154
REMARK   62  A    between atoms: _154  and  _155
REMARK   63  A    between atoms: _154  and  _157
REMARK   64  A    between atoms: _157  and  _158
REMARK   65  A    between atoms: _163  and  _164
REMARK   66  A    between atoms: _166  and  _168
REMARK   67  A    between atoms: _168  and  _169
REMARK   68  A    between atoms: _168  and  _171
REMARK   69  A    between atoms: _171  and  _172
REMARK   70  A    between atoms: _175  and  _177
REMARK   71  A    between atoms: _177  and  _178
REMARK   72  A    between atoms: _177  and  _180
REMARK   73  A    between atoms: _180  and  _181
REMARK   74  A    between atoms: _187  and  _189
REMARK   75  A    between atoms: _189  and  _190
REMARK   76  A    between atoms: _189  and  _192
REMARK   77  A    between atoms: _192  and  _193
REMARK   78  A    between atoms: _198  and  _199
REMARK   79  A    between atoms: _201  and  _203
REMARK   80  A    between atoms: _203  and  _204
REMARK   81  A    between atoms: _206  and  _208
REMARK   82  A    between atoms: _208  and  _209
REMARK   83  A    between atoms: _211  and  _213
REMARK   84  A    between atoms: _213  and  _214
REMARK   85  A    between atoms: _213  and  _216
REMARK   86  A    between atoms: _216  and  _217
REMARK   87  A    between atoms: _227  and  _229
REMARK   88  A    between atoms: _229  and  _230
REMARK   89  A    between atoms: _229  and  _232
REMARK   90  A    between atoms: _232  and  _233
REMARK   91  A    between atoms: _238  and  _240
REMARK   92  A    between atoms: _240  and  _241
REMARK   93  A    between atoms: _240  and  _243
REMARK   94  A    between atoms: _243  and  _244
REMARK   95  A    between atoms: _249  and  _250
REMARK   96  A    between atoms: _252  and  _254
REMARK   97  A    between atoms: _254  and  _255
REMARK   98  A    between atoms: _254  and  _257
REMARK   99  A    between atoms: _257  and  _258
REMARK  100  A    between atoms: _263  and  _264
REMARK  101  A    between atoms: _266  and  _268
REMARK  102  A    between atoms: _268  and  _269
REMARK  103  A    between atoms: _268  and  _271
REMARK  104  A    between atoms: _271  and  _272
REMARK  105  A    between atoms: _272  and  _273
REMARK  106  A    between atoms: _273  and  _274
REMARK  107  A    between atoms: _283  and  _285
REMARK  108  A    between atoms: _285  and  _286
REMARK  109  A    between atoms: _285  and  _288
REMARK  110  A    between atoms: _288  and  _289
REMARK  111  A    between atoms: _289  and  _290
REMARK  112  A    between atoms: _290  and  _291
REMARK  113  A    between atoms: _291  and  _292
REMARK  114  A    between atoms: _296  and  _298
REMARK  115  A    between atoms: _298  and  _299
REMARK  116  A    between atoms: _298  and  _301
REMARK  117  A    between atoms: _301  and  _302
REMARK  118  A    between atoms: _302  and  _303
REMARK  119  A    between atoms: _306  and  _308
REMARK  120  A    between atoms: _308  and  _309
REMARK  121  A    between atoms: _308  and  _311
REMARK  122  A    between atoms: _314  and  _316
REMARK  123  A    between atoms: _316  and  _317
REMARK  124  A    between atoms: _316  and  _319
REMARK  125  A    between atoms: _319  and  _320
REMARK  126  A    between atoms: _330  and  _332
REMARK  127  A    between atoms: _332  and  _333
REMARK  128  A    between atoms: _332  and  _335
REMARK  129  A    between atoms: _335  and  _336
REMARK  130  A    between atoms: _336  and  _337
REMARK                            x       y       z     vdW  Elec       q    Type
REMARK                         _______ _______ _______ _____ _____    ______ ____
ROOT
ATOM      1  O   HOH     1      14.312 -15.713  26.152  0.00  0.00    +0.000 OA
ENDROOT
TORSDOF 0
REMARK  Name = ../refined-set-2016/3arw/3arw_pocket.pdb
REMARK  130 active torsions:
REMARK  status: ('A' for Active; 'I' for Inactive)
REMARK    1  A    between atoms: _1  and  _3
REMARK    2  A    between atoms: _3  and  _4
REMARK    3  A    between atoms: _3  and  _6
REMARK    4  A    between atoms: _6  and  _7
REMARK    5  A    between atoms: _17  and  _19
REMARK    6  A    between atoms: _19  and  _20
REMARK    7  A    between atoms: _19  and  _22
REMARK    8  A    between atoms: _22  and  _23
REMARK    9  A    between atoms: _29  and  _31
REMARK   10  A    between atoms: _31  and  _32
REMARK   11  A    between atoms: _31  and  _34
REMARK   12  A    between atoms: _34  and  _35
REMARK   13  A    between atoms: _37  and  _39
REMARK   14  A    between atoms: _39  and  _40
REMARK   15  A    between atoms: _39  and  _42
REMARK   16  A    between atoms: _42  and  _43
REMARK   17  A    between atoms: _45  and  _47
REMARK   18  A    between atoms: _47  and  _48
REMARK   19  A    between atoms: _47  and  _50
REMARK   20  A    between atoms: _53  and  _55
REMARK   21  A    between atoms: _55  and  _56
REMARK   22  A    between atoms: _58  and  _60
REMARK   23  A    between atoms: _60  and  _61
REMARK   24  A    between atoms: _60  and  _63
REMARK   25  A    between atoms: _63  and  _64
REMARK   26  A    between atoms: _74  and  _76
REMARK   27  A    between atoms: _76  and  _77
REMARK   28  A    between atoms: _76  and  _79
REMARK   29  A    between atoms: _79  and  _80
REMARK   30  A    between atoms: _83  and  _85
REMARK   31  A    between atoms: _85  and  _86
REMARK   32  A    between atoms: _85  and  _88
REMARK   33  A    between atoms: _88  and  _89
REMARK   34  A    between atoms: _92  and  _94
REMARK   35  A    between atoms: _94  and  _95
REMARK   36  A    between atoms: _94  and  _97
REMARK   37  A    between atoms: _97  and  _98
REMARK   38  A    between atoms: _98  and  _99
REMARK   39  A    between atoms: _102  and  _104
REMARK   40  A    between atoms: _104  and  _105
REMARK   41  A    between atoms: _104  and  _107
REMARK   42  A    between atoms: _107  and  _108
REMARK   43  A    between atoms: _114  and  _116
REMARK   44  A    between atoms: _116  and  _117
REMARK   45  A    between atoms: _119  and  _121
REMARK   46  A    between atoms: _121  and  _122
REMARK   47  A    between atoms: _124  and  _126
REMARK   48  A    between atoms: _126  and  _127
REMARK   49  A    between atoms: _130  and  _132
REMARK   50  A    between atoms: _132  and  _133
REMARK   51  A    between atoms: _132  and  _135
REMARK   52  A    between atoms: _135  and  _136
REMARK   53  A    between atoms: _136  and  _137
REMARK   54  A    between atoms: _137  and  _138
REMARK   55  A    between atoms: _138  and  _139
REMARK   56  A    between atoms: _143  and  _145
REMARK   57  A    between atoms: _145  and  _146
REMARK   58  A    between atoms: _145  and  _148
REMARK   59  A    between atoms: _148  and  _149
REMARK   60  A    between atoms: _149  and  _150
REMARK   61  A    between atoms: _152  and  _154
REMARK   62  A    between atoms: _154  and  _155
REMARK   63  A    between atoms: _154  and  _157
REMARK   64  A    between atoms: _157  and  _158
REMARK   65  A    between atoms: _163  and  _164
REMARK   66  A    between atoms: _166  and  _168
REMARK   67  A    between atoms: _168  and  _169
REMARK   68  A    between atoms: _168  and  _171
REMARK   69  A    between atoms: _171  and  _172
REMARK   70  A    between atoms: _175  and  _177
REMARK   71  A    between atoms: _177  and  _178
REMARK   72  A    between atoms: _177  and  _180
REMARK   73  A    between atoms: _180  and  _181
REMARK   74  A    between atoms: _187  and  _189
REMARK   75  A    between atoms: _189  and  _190
REMARK   76  A    between atoms: _189  and  _192
REMARK   77  A    between atoms: _192  and  _193
REMARK   78  A    between atoms: _198  and  _199
REMARK   79  A    between atoms: _201  and  _203
REMARK   80  A    between atoms: _203  and  _204
REMARK   81  A    between atoms: _206  and  _208
REMARK   82  A    between atoms: _208  and  _209
REMARK   83  A    between atoms: _211  and  _213
REMARK   84  A    between atoms: _213  and  _214
REMARK   85  A    between atoms: _213  and  _216
REMARK   86  A    between atoms: _216  and  _217
REMARK   87  A    between atoms: _227  and  _229
REMARK   88  A    between atoms: _229  and  _230
REMARK   89  A    between atoms: _229  and  _232
REMARK   90  A    between atoms: _232  and  _233
REMARK   91  A    between atoms: _238  and  _240
REMARK   92  A    between atoms: _240  and  _241
REMARK   93  A    between atoms: _240  and  _243
REMARK   94  A    between atoms: _243  and  _244
REMARK   95  A    between atoms: _249  and  _250
REMARK   96  A    between atoms: _252  and  _254
REMARK   97  A    between atoms: _254  and  _255
REMARK   98  A    between atoms: _254  and  _257
REMARK   99  A    between atoms: _257  and  _258
REMARK  100  A    between atoms: _263  and  _264
REMARK  101  A    between atoms: _266  and  _268
REMARK  102  A    between atoms: _268  and  _269
REMARK  103  A    between atoms: _268  and  _271
REMARK  104  A    between atoms: _271  and  _272
REMARK  105  A    between atoms: _272  and  _273
REMARK  106  A    between atoms: _273  and  _274
REMARK  107  A    between atoms: _283  and  _285
REMARK  108  A    between atoms: _285  and  _286
REMARK  109  A    between atoms: _285  and  _288
REMARK  110  A    between atoms: _288  and  _289
REMARK  111  A    between atoms: _289  and  _290
REMARK  112  A    between atoms: _290  and  _291
REMARK  113  A    between atoms: _291  and  _292
REMARK  114  A    between atoms: _296  and  _298
REMARK  115  A    between atoms: _298  and  _299
REMARK  116  A    between atoms: _298  and  _301
REMARK  117  A    between atoms: _301  and  _302
REMARK  118  A    between atoms: _302  and  _303
REMARK  119  A    between atoms: _306  and  _308
REMARK  120  A    between atoms: _308  and  _309
REMARK  121  A    between atoms: _308  and  _311
REMARK  122  A    between atoms: _314  and  _316
REMARK  123  A    between atoms: _316  and  _317
REMARK  124  A    between atoms: _316  and  _319
REMARK  125  A    between atoms: _319  and  _320
REMARK  126  A    between atoms: _330  and  _332
REMARK  127  A    between atoms: _332  and  _333
REMARK  128  A    between atoms: _332  and  _335
REMARK  129  A    between atoms: _335  and  _336
REMARK  130  A    between atoms: _336  and  _337
REMARK                            x       y       z     vdW  Elec       q    Type
REMARK                         _______ _______ _______ _____ _____    ______ ____
ROOT
ATOM      1  O   HOH     1      23.732  -6.074  15.110  0.00  0.00    +0.000 OA
ENDROOT
TORSDOF 0
REMARK  Name = ../refined-set-2016/3arw/3arw_pocket.pdb
REMARK  130 active torsions:
REMARK  status: ('A' for Active; 'I' for Inactive)
REMARK    1  A    between atoms: _1  and  _3
REMARK    2  A    between atoms: _3  and  _4
REMARK    3  A    between atoms: _3  and  _6
REMARK    4  A    between atoms: _6  and  _7
REMARK    5  A    between atoms: _17  and  _19
REMARK    6  A    between atoms: _19  and  _20
REMARK    7  A    between atoms: _19  and  _22
REMARK    8  A    between atoms: _22  and  _23
REMARK    9  A    between atoms: _29  and  _31
REMARK   10  A    between atoms: _31  and  _32
REMARK   11  A    between atoms: _31  and  _34
REMARK   12  A    between atoms: _34  and  _35
REMARK   13  A    between atoms: _37  and  _39
REMARK   14  A    between atoms: _39  and  _40
REMARK   15  A    between atoms: _39  and  _42
REMARK   16  A    between atoms: _42  and  _43
REMARK   17  A    between atoms: _45  and  _47
REMARK   18  A    between atoms: _47  and  _48
REMARK   19  A    between atoms: _47  and  _50
REMARK   20  A    between atoms: _53  and  _55
REMARK   21  A    between atoms: _55  and  _56
REMARK   22  A    between atoms: _58  and  _60
REMARK   23  A    between atoms: _60  and  _61
REMARK   24  A    between atoms: _60  and  _63
REMARK   25  A    between atoms: _63  and  _64
REMARK   26  A    between atoms: _74  and  _76
REMARK   27  A    between atoms: _76  and  _77
REMARK   28  A    between atoms: _76  and  _79
REMARK   29  A    between atoms: _79  and  _80
REMARK   30  A    between atoms: _83  and  _85
REMARK   31  A    between atoms: _85  and  _86
REMARK   32  A    between atoms: _85  and  _88
REMARK   33  A    between atoms: _88  and  _89
REMARK   34  A    between atoms: _92  and  _94
REMARK   35  A    between atoms: _94  and  _95
REMARK   36  A    between atoms: _94  and  _97
REMARK   37  A    between atoms: _97  and  _98
REMARK   38  A    between atoms: _98  and  _99
REMARK   39  A    between atoms: _102  and  _104
REMARK   40  A    between atoms: _104  and  _105
REMARK   41  A    between atoms: _104  and  _107
REMARK   42  A    between atoms: _107  and  _108
REMARK   43  A    between atoms: _114  and  _116
REMARK   44  A    between atoms: _116  and  _117
REMARK   45  A    between atoms: _119  and  _121
REMARK   46  A    between atoms: _121  and  _122
REMARK   47  A    between atoms: _124  and  _126
REMARK   48  A    between atoms: _126  and  _127
REMARK   49  A    between atoms: _130  and  _132
REMARK   50  A    between atoms: _132  and  _133
REMARK   51  A    between atoms: _132  and  _135
REMARK   52  A    between atoms: _135  and  _136
REMARK   53  A    between atoms: _136  and  _137
REMARK   54  A    between atoms: _137  and  _138
REMARK   55  A    between atoms: _138  and  _139
REMARK   56  A    between atoms: _143  and  _145
REMARK   57  A    between atoms: _145  and  _146
REMARK   58  A    between atoms: _145  and  _148
REMARK   59  A    between atoms: _148  and  _149
REMARK   60  A    between atoms: _149  and  _150
REMARK   61  A    between atoms: _152  and  _154
REMARK   62  A    between atoms: _154  and  _155
REMARK   63  A    between atoms: _154  and  _157
REMARK   64  A    between atoms: _157  and  _158
REMARK   65  A    between atoms: _163  and  _164
REMARK   66  A    between atoms: _166  and  _168
REMARK   67  A    between atoms: _168  and  _169
REMARK   68  A    between atoms: _168  and  _171
REMARK   69  A    between atoms: _171  and  _172
REMARK   70  A    between atoms: _175  and  _177
REMARK   71  A    between atoms: _177  and  _178
REMARK   72  A    between atoms: _177  and  _180
REMARK   73  A    between atoms: _180  and  _181
REMARK   74  A    between atoms: _187  and  _189
REMARK   75  A    between atoms: _189  and  _190
REMARK   76  A    between atoms: _189  and  _192
REMARK   77  A    between atoms: _192  and  _193
REMARK   78  A    between atoms: _198  and  _199
REMARK   79  A    between atoms: _201  and  _203
REMARK   80  A    between atoms: _203  and  _204
REMARK   81  A    between atoms: _206  and  _208
REMARK   82  A    between atoms: _208  and  _209
REMARK   83  A    between atoms: _211  and  _213
REMARK   84  A    between atoms: _213  and  _214
REMARK   85  A    between atoms: _213  and  _216
REMARK   86  A    between atoms: _216  and  _217
REMARK   87  A    between atoms: _227  and  _229
REMARK   88  A    between atoms: _229  and  _230
REMARK   89  A    between atoms: _229  and  _232
REMARK   90  A    between atoms: _232  and  _233
REMARK   91  A    between atoms: _238  and  _240
REMARK   92  A    between atoms: _240  and  _241
REMARK   93  A    between atoms: _240  and  _243
REMARK   94  A    between atoms: _243  and  _244
REMARK   95  A    between atoms: _249  and  _250
REMARK   96  A    between atoms: _252  and  _254
REMARK   97  A    between atoms: _254  and  _255
REMARK   98  A    between atoms: _254  and  _257
REMARK   99  A    between atoms: _257  and  _258
REMARK  100  A    between atoms: _263  and  _264
REMARK  101  A    between atoms: _266  and  _268
REMARK  102  A    between atoms: _268  and  _269
REMARK  103  A    between atoms: _268  and  _271
REMARK  104  A    between atoms: _271  and  _272
REMARK  105  A    between atoms: _272  and  _273
REMARK  106  A    between atoms: _273  and  _274
REMARK  107  A    between atoms: _283  and  _285
REMARK  108  A    between atoms: _285  and  _286
REMARK  109  A    between atoms: _285  and  _288
REMARK  110  A    between atoms: _288  and  _289
REMARK  111  A    between atoms: _289  and  _290
REMARK  112  A    between atoms: _290  and  _291
REMARK  113  A    between atoms: _291  and  _292
REMARK  114  A    between atoms: _296  and  _298
REMARK  115  A    between atoms: _298  and  _299
REMARK  116  A    between atoms: _298  and  _301
REMARK  117  A    between atoms: _301  and  _302
REMARK  118  A    between atoms: _302  and  _303
REMARK  119  A    between atoms: _306  and  _308
REMARK  120  A    between atoms: _308  and  _309
REMARK  121  A    between atoms: _308  and  _311
REMARK  122  A    between atoms: _314  and  _316
REMARK  123  A    between atoms: _316  and  _317
REMARK  124  A    between atoms: _316  and  _319
REMARK  125  A    between atoms: _319  and  _320
REMARK  126  A    between atoms: _330  and  _332
REMARK  127  A    between atoms: _332  and  _333
REMARK  128  A    between atoms: _332  and  _335
REMARK  129  A    between atoms: _335  and  _336
REMARK  130  A    between atoms: _336  and  _337
REMARK                            x       y       z     vdW  Elec       q    Type
REMARK                         _______ _______ _______ _____ _____    ______ ____
ROOT
ATOM      1  O   HOH     1       9.352 -10.517  23.999  0.00  0.00    +0.000 OA
ENDROOT
TORSDOF 0
REMARK  Name = ../refined-set-2016/3arw/3arw_pocket.pdb
REMARK  130 active torsions:
REMARK  status: ('A' for Active; 'I' for Inactive)
REMARK    1  A    between atoms: _1  and  _3
REMARK    2  A    between atoms: _3  and  _4
REMARK    3  A    between atoms: _3  and  _6
REMARK    4  A    between atoms: _6  and  _7
REMARK    5  A    between atoms: _17  and  _19
REMARK    6  A    between atoms: _19  and  _20
REMARK    7  A    between atoms: _19  and  _22
REMARK    8  A    between atoms: _22  and  _23
REMARK    9  A    between atoms: _29  and  _31
REMARK   10  A    between atoms: _31  and  _32
REMARK   11  A    between atoms: _31  and  _34
REMARK   12  A    between atoms: _34  and  _35
REMARK   13  A    between atoms: _37  and  _39
REMARK   14  A    between atoms: _39  and  _40
REMARK   15  A    between atoms: _39  and  _42
REMARK   16  A    between atoms: _42  and  _43
REMARK   17  A    between atoms: _45  and  _47
REMARK   18  A    between atoms: _47  and  _48
REMARK   19  A    between atoms: _47  and  _50
REMARK   20  A    between atoms: _53  and  _55
REMARK   21  A    between atoms: _55  and  _56
REMARK   22  A    between atoms: _58  and  _60
REMARK   23  A    between atoms: _60  and  _61
REMARK   24  A    between atoms: _60  and  _63
REMARK   25  A    between atoms: _63  and  _64
REMARK   26  A    between atoms: _74  and  _76
REMARK   27  A    between atoms: _76  and  _77
REMARK   28  A    between atoms: _76  and  _79
REMARK   29  A    between atoms: _79  and  _80
REMARK   30  A    between atoms: _83  and  _85
REMARK   31  A    between atoms: _85  and  _86
REMARK   32  A    between atoms: _85  and  _88
REMARK   33  A    between atoms: _88  and  _89
REMARK   34  A    between atoms: _92  and  _94
REMARK   35  A    between atoms: _94  and  _95
REMARK   36  A    between atoms: _94  and  _97
REMARK   37  A    between atoms: _97  and  _98
REMARK   38  A    between atoms: _98  and  _99
REMARK   39  A    between atoms: _102  and  _104
REMARK   40  A    between atoms: _104  and  _105
REMARK   41  A    between atoms: _104  and  _107
REMARK   42  A    between atoms: _107  and  _108
REMARK   43  A    between atoms: _114  and  _116
REMARK   44  A    between atoms: _116  and  _117
REMARK   45  A    between atoms: _119  and  _121
REMARK   46  A    between atoms: _121  and  _122
REMARK   47  A    between atoms: _124  and  _126
REMARK   48  A    between atoms: _126  and  _127
REMARK   49  A    between atoms: _130  and  _132
REMARK   50  A    between atoms: _132  and  _133
REMARK   51  A    between atoms: _132  and  _135
REMARK   52  A    between atoms: _135  and  _136
REMARK   53  A    between atoms: _136  and  _137
REMARK   54  A    between atoms: _137  and  _138
REMARK   55  A    between atoms: _138  and  _139
REMARK   56  A    between atoms: _143  and  _145
REMARK   57  A    between atoms: _145  and  _146
REMARK   58  A    between atoms: _145  and  _148
REMARK   59  A    between atoms: _148  and  _149
REMARK   60  A    between atoms: _149  and  _150
REMARK   61  A    between atoms: _152  and  _154
REMARK   62  A    between atoms: _154  and  _155
REMARK   63  A    between atoms: _154  and  _157
REMARK   64  A    between atoms: _157  and  _158
REMARK   65  A    between atoms: _163  and  _164
REMARK   66  A    between atoms: _166  and  _168
REMARK   67  A    between atoms: _168  and  _169
REMARK   68  A    between atoms: _168  and  _171
REMARK   69  A    between atoms: _171  and  _172
REMARK   70  A    between atoms: _175  and  _177
REMARK   71  A    between atoms: _177  and  _178
REMARK   72  A    between atoms: _177  and  _180
REMARK   73  A    between atoms: _180  and  _181
REMARK   74  A    between atoms: _187  and  _189
REMARK   75  A    between atoms: _189  and  _190
REMARK   76  A    between atoms: _189  and  _192
REMARK   77  A    between atoms: _192  and  _193
REMARK   78  A    between atoms: _198  and  _199
REMARK   79  A    between atoms: _201  and  _203
REMARK   80  A    between atoms: _203  and  _204
REMARK   81  A    between atoms: _206  and  _208
REMARK   82  A    between atoms: _208  and  _209
REMARK   83  A    between atoms: _211  and  _213
REMARK   84  A    between atoms: _213  and  _214
REMARK   85  A    between atoms: _213  and  _216
REMARK   86  A    between atoms: _216  and  _217
REMARK   87  A    between atoms: _227  and  _229
REMARK   88  A    between atoms: _229  and  _230
REMARK   89  A    between atoms: _229  and  _232
REMARK   90  A    between atoms: _232  and  _233
REMARK   91  A    between atoms: _238  and  _240
REMARK   92  A    between atoms: _240  and  _241
REMARK   93  A    between atoms: _240  and  _243
REMARK   94  A    between atoms: _243  and  _244
REMARK   95  A    between atoms: _249  and  _250
REMARK   96  A    between atoms: _252  and  _254
REMARK   97  A    between atoms: _254  and  _255
REMARK   98  A    between atoms: _254  and  _257
REMARK   99  A    between atoms: _257  and  _258
REMARK  100  A    between atoms: _263  and  _264
REMARK  101  A    between atoms: _266  and  _268
REMARK  102  A    between atoms: _268  and  _269
REMARK  103  A    between atoms: _268  and  _271
REMARK  104  A    between atoms: _271  and  _272
REMARK  105  A    between atoms: _272  and  _273
REMARK  106  A    between atoms: _273  and  _274
REMARK  107  A    between atoms: _283  and  _285
REMARK  108  A    between atoms: _285  and  _286
REMARK  109  A    between atoms: _285  and  _288
REMARK  110  A    between atoms: _288  and  _289
REMARK  111  A    between atoms: _289  and  _290
REMARK  112  A    between atoms: _290  and  _291
REMARK  113  A    between atoms: _291  and  _292
REMARK  114  A    between atoms: _296  and  _298
REMARK  115  A    between atoms: _298  and  _299
REMARK  116  A    between atoms: _298  and  _301
REMARK  117  A    between atoms: _301  and  _302
REMARK  118  A    between atoms: _302  and  _303
REMARK  119  A    between atoms: _306  and  _308
REMARK  120  A    between atoms: _308  and  _309
REMARK  121  A    between atoms: _308  and  _311
REMARK  122  A    between atoms: _314  and  _316
REMARK  123  A    between atoms: _316  and  _317
REMARK  124  A    between atoms: _316  and  _319
REMARK  125  A    between atoms: _319  and  _320
REMARK  126  A    between atoms: _330  and  _332
REMARK  127  A    between atoms: _332  and  _333
REMARK  128  A    between atoms: _332  and  _335
REMARK  129  A    between atoms: _335  and  _336
REMARK  130  A    between atoms: _336  and  _337
REMARK                            x       y       z     vdW  Elec       q    Type
REMARK                         _______ _______ _______ _____ _____    ______ ____
ROOT
ATOM      1  O   HOH     1       8.117  -2.400  26.313  0.00  0.00    +0.000 OA
ENDROOT
TORSDOF 0
REMARK  Name = ../refined-set-2016/3arw/3arw_pocket.pdb
REMARK  130 active torsions:
REMARK  status: ('A' for Active; 'I' for Inactive)
REMARK    1  A    between atoms: _1  and  _3
REMARK    2  A    between atoms: _3  and  _4
REMARK    3  A    between atoms: _3  and  _6
REMARK    4  A    between atoms: _6  and  _7
REMARK    5  A    between atoms: _17  and  _19
REMARK    6  A    between atoms: _19  and  _20
REMARK    7  A    between atoms: _19  and  _22
REMARK    8  A    between atoms: _22  and  _23
REMARK    9  A    between atoms: _29  and  _31
REMARK   10  A    between atoms: _31  and  _32
REMARK   11  A    between atoms: _31  and  _34
REMARK   12  A    between atoms: _34  and  _35
REMARK   13  A    between atoms: _37  and  _39
REMARK   14  A    between atoms: _39  and  _40
REMARK   15  A    between atoms: _39  and  _42
REMARK   16  A    between atoms: _42  and  _43
REMARK   17  A    between atoms: _45  and  _47
REMARK   18  A    between atoms: _47  and  _48
REMARK   19  A    between atoms: _47  and  _50
REMARK   20  A    between atoms: _53  and  _55
REMARK   21  A    between atoms: _55  and  _56
REMARK   22  A    between atoms: _58  and  _60
REMARK   23  A    between atoms: _60  and  _61
REMARK   24  A    between atoms: _60  and  _63
REMARK   25  A    between atoms: _63  and  _64
REMARK   26  A    between atoms: _74  and  _76
REMARK   27  A    between atoms: _76  and  _77
REMARK   28  A    between atoms: _76  and  _79
REMARK   29  A    between atoms: _79  and  _80
REMARK   30  A    between atoms: _83  and  _85
REMARK   31  A    between atoms: _85  and  _86
REMARK   32  A    between atoms: _85  and  _88
REMARK   33  A    between atoms: _88  and  _89
REMARK   34  A    between atoms: _92  and  _94
REMARK   35  A    between atoms: _94  and  _95
REMARK   36  A    between atoms: _94  and  _97
REMARK   37  A    between atoms: _97  and  _98
REMARK   38  A    between atoms: _98  and  _99
REMARK   39  A    between atoms: _102  and  _104
REMARK   40  A    between atoms: _104  and  _105
REMARK   41  A    between atoms: _104  and  _107
REMARK   42  A    between atoms: _107  and  _108
REMARK   43  A    between atoms: _114  and  _116
REMARK   44  A    between atoms: _116  and  _117
REMARK   45  A    between atoms: _119  and  _121
REMARK   46  A    between atoms: _121  and  _122
REMARK   47  A    between atoms: _124  and  _126
REMARK   48  A    between atoms: _126  and  _127
REMARK   49  A    between atoms: _130  and  _132
REMARK   50  A    between atoms: _132  and  _133
REMARK   51  A    between atoms: _132  and  _135
REMARK   52  A    between atoms: _135  and  _136
REMARK   53  A    between atoms: _136  and  _137
REMARK   54  A    between atoms: _137  and  _138
REMARK   55  A    between atoms: _138  and  _139
REMARK   56  A    between atoms: _143  and  _145
REMARK   57  A    between atoms: _145  and  _146
REMARK   58  A    between atoms: _145  and  _148
REMARK   59  A    between atoms: _148  and  _149
REMARK   60  A    between atoms: _149  and  _150
REMARK   61  A    between atoms: _152  and  _154
REMARK   62  A    between atoms: _154  and  _155
REMARK   63  A    between atoms: _154  and  _157
REMARK   64  A    between atoms: _157  and  _158
REMARK   65  A    between atoms: _163  and  _164
REMARK   66  A    between atoms: _166  and  _168
REMARK   67  A    between atoms: _168  and  _169
REMARK   68  A    between atoms: _168  and  _171
REMARK   69  A    between atoms: _171  and  _172
REMARK   70  A    between atoms: _175  and  _177
REMARK   71  A    between atoms: _177  and  _178
REMARK   72  A    between atoms: _177  and  _180
REMARK   73  A    between atoms: _180  and  _181
REMARK   74  A    between atoms: _187  and  _189
REMARK   75  A    between atoms: _189  and  _190
REMARK   76  A    between atoms: _189  and  _192
REMARK   77  A    between atoms: _192  and  _193
REMARK   78  A    between atoms: _198  and  _199
REMARK   79  A    between atoms: _201  and  _203
REMARK   80  A    between atoms: _203  and  _204
REMARK   81  A    between atoms: _206  and  _208
REMARK   82  A    between atoms: _208  and  _209
REMARK   83  A    between atoms: _211  and  _213
REMARK   84  A    between atoms: _213  and  _214
REMARK   85  A    between atoms: _213  and  _216
REMARK   86  A    between atoms: _216  and  _217
REMARK   87  A    between atoms: _227  and  _229
REMARK   88  A    between atoms: _229  and  _230
REMARK   89  A    between atoms: _229  and  _232
REMARK   90  A    between atoms: _232  and  _233
REMARK   91  A    between atoms: _238  and  _240
REMARK   92  A    between atoms: _240  and  _241
REMARK   93  A    between atoms: _240  and  _243
REMARK   94  A    between atoms: _243  and  _244
REMARK   95  A    between atoms: _249  and  _250
REMARK   96  A    between atoms: _252  and  _254
REMARK   97  A    between atoms: _254  and  _255
REMARK   98  A    between atoms: _254  and  _257
REMARK   99  A    between atoms: _257  and  _258
REMARK  100  A    between atoms: _263  and  _264
REMARK  101  A    between atoms: _266  and  _268
REMARK  102  A    between atoms: _268  and  _269
REMARK  103  A    between atoms: _268  and  _271
REMARK  104  A    between atoms: _271  and  _272
REMARK  105  A    between atoms: _272  and  _273
REMARK  106  A    between atoms: _273  and  _274
REMARK  107  A    between atoms: _283  and  _285
REMARK  108  A    between atoms: _285  and  _286
REMARK  109  A    between atoms: _285  and  _288
REMARK  110  A    between atoms: _288  and  _289
REMARK  111  A    between atoms: _289  and  _290
REMARK  112  A    between atoms: _290  and  _291
REMARK  113  A    between atoms: _291  and  _292
REMARK  114  A    between atoms: _296  and  _298
REMARK  115  A    between atoms: _298  and  _299
REMARK  116  A    between atoms: _298  and  _301
REMARK  117  A    between atoms: _301  and  _302
REMARK  118  A    between atoms: _302  and  _303
REMARK  119  A    between atoms: _306  and  _308
REMARK  120  A    between atoms: _308  and  _309
REMARK  121  A    between atoms: _308  and  _311
REMARK  122  A    between atoms: _314  and  _316
REMARK  123  A    between atoms: _316  and  _317
REMARK  124  A    between atoms: _316  and  _319
REMARK  125  A    between atoms: _319  and  _320
REMARK  126  A    between atoms: _330  and  _332
REMARK  127  A    between atoms: _332  and  _333
REMARK  128  A    between atoms: _332  and  _335
REMARK  129  A    between atoms: _335  and  _336
REMARK  130  A    between atoms: _336  and  _337
REMARK                            x       y       z     vdW  Elec       q    Type
REMARK                         _______ _______ _______ _____ _____    ______ ____
ROOT
ATOM      1  O   HOH     1      24.623  -8.620  14.416  0.00  0.00    +0.000 OA
ENDROOT
TORSDOF 0
REMARK  Name = ../refined-set-2016/3arw/3arw_pocket.pdb
REMARK  130 active torsions:
REMARK  status: ('A' for Active; 'I' for Inactive)
REMARK    1  A    between atoms: _1  and  _3
REMARK    2  A    between atoms: _3  and  _4
REMARK    3  A    between atoms: _3  and  _6
REMARK    4  A    between atoms: _6  and  _7
REMARK    5  A    between atoms: _17  and  _19
REMARK    6  A    between atoms: _19  and  _20
REMARK    7  A    between atoms: _19  and  _22
REMARK    8  A    between atoms: _22  and  _23
REMARK    9  A    between atoms: _29  and  _31
REMARK   10  A    between atoms: _31  and  _32
REMARK   11  A    between atoms: _31  and  _34
REMARK   12  A    between atoms: _34  and  _35
REMARK   13  A    between atoms: _37  and  _39
REMARK   14  A    between atoms: _39  and  _40
REMARK   15  A    between atoms: _39  and  _42
REMARK   16  A    between atoms: _42  and  _43
REMARK   17  A    between atoms: _45  and  _47
REMARK   18  A    between atoms: _47  and  _48
REMARK   19  A    between atoms: _47  and  _50
REMARK   20  A    between atoms: _53  and  _55
REMARK   21  A    between atoms: _55  and  _56
REMARK   22  A    between atoms: _58  and  _60
REMARK   23  A    between atoms: _60  and  _61
REMARK   24  A    between atoms: _60  and  _63
REMARK   25  A    between atoms: _63  and  _64
REMARK   26  A    between atoms: _74  and  _76
REMARK   27  A    between atoms: _76  and  _77
REMARK   28  A    between atoms: _76  and  _79
REMARK   29  A    between atoms: _79  and  _80
REMARK   30  A    between atoms: _83  and  _85
REMARK   31  A    between atoms: _85  and  _86
REMARK   32  A    between atoms: _85  and  _88
REMARK   33  A    between atoms: _88  and  _89
REMARK   34  A    between atoms: _92  and  _94
REMARK   35  A    between atoms: _94  and  _95
REMARK   36  A    between atoms: _94  and  _97
REMARK   37  A    between atoms: _97  and  _98
REMARK   38  A    between atoms: _98  and  _99
REMARK   39  A    between atoms: _102  and  _104
REMARK   40  A    between atoms: _104  and  _105
REMARK   41  A    between atoms: _104  and  _107
REMARK   42  A    between atoms: _107  and  _108
REMARK   43  A    between atoms: _114  and  _116
REMARK   44  A    between atoms: _116  and  _117
REMARK   45  A    between atoms: _119  and  _121
REMARK   46  A    between atoms: _121  and  _122
REMARK   47  A    between atoms: _124  and  _126
REMARK   48  A    between atoms: _126  and  _127
REMARK   49  A    between atoms: _130  and  _132
REMARK   50  A    between atoms: _132  and  _133
REMARK   51  A    between atoms: _132  and  _135
REMARK   52  A    between atoms: _135  and  _136
REMARK   53  A    between atoms: _136  and  _137
REMARK   54  A    between atoms: _137  and  _138
REMARK   55  A    between atoms: _138  and  _139
REMARK   56  A    between atoms: _143  and  _145
REMARK   57  A    between atoms: _145  and  _146
REMARK   58  A    between atoms: _145  and  _148
REMARK   59  A    between atoms: _148  and  _149
REMARK   60  A    between atoms: _149  and  _150
REMARK   61  A    between atoms: _152  and  _154
REMARK   62  A    between atoms: _154  and  _155
REMARK   63  A    between atoms: _154  and  _157
REMARK   64  A    between atoms: _157  and  _158
REMARK   65  A    between atoms: _163  and  _164
REMARK   66  A    between atoms: _166  and  _168
REMARK   67  A    between atoms: _168  and  _169
REMARK   68  A    between atoms: _168  and  _171
REMARK   69  A    between atoms: _171  and  _172
REMARK   70  A    between atoms: _175  and  _177
REMARK   71  A    between atoms: _177  and  _178
REMARK   72  A    between atoms: _177  and  _180
REMARK   73  A    between atoms: _180  and  _181
REMARK   74  A    between atoms: _187  and  _189
REMARK   75  A    between atoms: _189  and  _190
REMARK   76  A    between atoms: _189  and  _192
REMARK   77  A    between atoms: _192  and  _193
REMARK   78  A    between atoms: _198  and  _199
REMARK   79  A    between atoms: _201  and  _203
REMARK   80  A    between atoms: _203  and  _204
REMARK   81  A    between atoms: _206  and  _208
REMARK   82  A    between atoms: _208  and  _209
REMARK   83  A    between atoms: _211  and  _213
REMARK   84  A    between atoms: _213  and  _214
REMARK   85  A    between atoms: _213  and  _216
REMARK   86  A    between atoms: _216  and  _217
REMARK   87  A    between atoms: _227  and  _229
REMARK   88  A    between atoms: _229  and  _230
REMARK   89  A    between atoms: _229  and  _232
REMARK   90  A    between atoms: _232  and  _233
REMARK   91  A    between atoms: _238  and  _240
REMARK   92  A    between atoms: _240  and  _241
REMARK   93  A    between atoms: _240  and  _243
REMARK   94  A    between atoms: _243  and  _244
REMARK   95  A    between atoms: _249  and  _250
REMARK   96  A    between atoms: _252  and  _254
REMARK   97  A    between atoms: _254  and  _255
REMARK   98  A    between atoms: _254  and  _257
REMARK   99  A    between atoms: _257  and  _258
REMARK  100  A    between atoms: _263  and  _264
REMARK  101  A    between atoms: _266  and  _268
REMARK  102  A    between atoms: _268  and  _269
REMARK  103  A    between atoms: _268  and  _271
REMARK  104  A    between atoms: _271  and  _272
REMARK  105  A    between atoms: _272  and  _273
REMARK  106  A    between atoms: _273  and  _274
REMARK  107  A    between atoms: _283  and  _285
REMARK  108  A    between atoms: _285  and  _286
REMARK  109  A    between atoms: _285  and  _288
REMARK  110  A    between atoms: _288  and  _289
REMARK  111  A    between atoms: _289  and  _290
REMARK  112  A    between atoms: _290  and  _291
REMARK  113  A    between atoms: _291  and  _292
REMARK  114  A    between atoms: _296  and  _298
REMARK  115  A    between atoms: _298  and  _299
REMARK  116  A    between atoms: _298  and  _301
REMARK  117  A    between atoms: _301  and  _302
REMARK  118  A    between atoms: _302  and  _303
REMARK  119  A    between atoms: _306  and  _308
REMARK  120  A    between atoms: _308  and  _309
REMARK  121  A    between atoms: _308  and  _311
REMARK  122  A    between atoms: _314  and  _316
REMARK  123  A    between atoms: _316  and  _317
REMARK  124  A    between atoms: _316  and  _319
REMARK  125  A    between atoms: _319  and  _320
REMARK  126  A    between atoms: _330  and  _332
REMARK  127  A    between atoms: _332  and  _333
REMARK  128  A    between atoms: _332  and  _335
REMARK  129  A    between atoms: _335  and  _336
REMARK  130  A    between atoms: _336  and  _337
REMARK                            x       y       z     vdW  Elec       q    Type
REMARK                         _______ _______ _______ _____ _____    ______ ____
ROOT
ATOM      1  O   HOH     1      20.027  -2.499  22.617  0.00  0.00    +0.000 OA
ENDROOT
TORSDOF 0
REMARK  Name = ../refined-set-2016/3arw/3arw_pocket.pdb
REMARK  130 active torsions:
REMARK  status: ('A' for Active; 'I' for Inactive)
REMARK    1  A    between atoms: _1  and  _3
REMARK    2  A    between atoms: _3  and  _4
REMARK    3  A    between atoms: _3  and  _6
REMARK    4  A    between atoms: _6  and  _7
REMARK    5  A    between atoms: _17  and  _19
REMARK    6  A    between atoms: _19  and  _20
REMARK    7  A    between atoms: _19  and  _22
REMARK    8  A    between atoms: _22  and  _23
REMARK    9  A    between atoms: _29  and  _31
REMARK   10  A    between atoms: _31  and  _32
REMARK   11  A    between atoms: _31  and  _34
REMARK   12  A    between atoms: _34  and  _35
REMARK   13  A    between atoms: _37  and  _39
REMARK   14  A    between atoms: _39  and  _40
REMARK   15  A    between atoms: _39  and  _42
REMARK   16  A    between atoms: _42  and  _43
REMARK   17  A    between atoms: _45  and  _47
REMARK   18  A    between atoms: _47  and  _48
REMARK   19  A    between atoms: _47  and  _50
REMARK   20  A    between atoms: _53  and  _55
REMARK   21  A    between atoms: _55  and  _56
REMARK   22  A    between atoms: _58  and  _60
REMARK   23  A    between atoms: _60  and  _61
REMARK   24  A    between atoms: _60  and  _63
REMARK   25  A    between atoms: _63  and  _64
REMARK   26  A    between atoms: _74  and  _76
REMARK   27  A    between atoms: _76  and  _77
REMARK   28  A    between atoms: _76  and  _79
REMARK   29  A    between atoms: _79  and  _80
REMARK   30  A    between atoms: _83  and  _85
REMARK   31  A    between atoms: _85  and  _86
REMARK   32  A    between atoms: _85  and  _88
REMARK   33  A    between atoms: _88  and  _89
REMARK   34  A    between atoms: _92  and  _94
REMARK   35  A    between atoms: _94  and  _95
REMARK   36  A    between atoms: _94  and  _97
REMARK   37  A    between atoms: _97  and  _98
REMARK   38  A    between atoms: _98  and  _99
REMARK   39  A    between atoms: _102  and  _104
REMARK   40  A    between atoms: _104  and  _105
REMARK   41  A    between atoms: _104  and  _107
REMARK   42  A    between atoms: _107  and  _108
REMARK   43  A    between atoms: _114  and  _116
REMARK   44  A    between atoms: _116  and  _117
REMARK   45  A    between atoms: _119  and  _121
REMARK   46  A    between atoms: _121  and  _122
REMARK   47  A    between atoms: _124  and  _126
REMARK   48  A    between atoms: _126  and  _127
REMARK   49  A    between atoms: _130  and  _132
REMARK   50  A    between atoms: _132  and  _133
REMARK   51  A    between atoms: _132  and  _135
REMARK   52  A    between atoms: _135  and  _136
REMARK   53  A    between atoms: _136  and  _137
REMARK   54  A    between atoms: _137  and  _138
REMARK   55  A    between atoms: _138  and  _139
REMARK   56  A    between atoms: _143  and  _145
REMARK   57  A    between atoms: _145  and  _146
REMARK   58  A    between atoms: _145  and  _148
REMARK   59  A    between atoms: _148  and  _149
REMARK   60  A    between atoms: _149  and  _150
REMARK   61  A    between atoms: _152  and  _154
REMARK   62  A    between atoms: _154  and  _155
REMARK   63  A    between atoms: _154  and  _157
REMARK   64  A    between atoms: _157  and  _158
REMARK   65  A    between atoms: _163  and  _164
REMARK   66  A    between atoms: _166  and  _168
REMARK   67  A    between atoms: _168  and  _169
REMARK   68  A    between atoms: _168  and  _171
REMARK   69  A    between atoms: _171  and  _172
REMARK   70  A    between atoms: _175  and  _177
REMARK   71  A    between atoms: _177  and  _178
REMARK   72  A    between atoms: _177  and  _180
REMARK   73  A    between atoms: _180  and  _181
REMARK   74  A    between atoms: _187  and  _189
REMARK   75  A    between atoms: _189  and  _190
REMARK   76  A    between atoms: _189  and  _192
REMARK   77  A    between atoms: _192  and  _193
REMARK   78  A    between atoms: _198  and  _199
REMARK   79  A    between atoms: _201  and  _203
REMARK   80  A    between atoms: _203  and  _204
REMARK   81  A    between atoms: _206  and  _208
REMARK   82  A    between atoms: _208  and  _209
REMARK   83  A    between atoms: _211  and  _213
REMARK   84  A    between atoms: _213  and  _214
REMARK   85  A    between atoms: _213  and  _216
REMARK   86  A    between atoms: _216  and  _217
REMARK   87  A    between atoms: _227  and  _229
REMARK   88  A    between atoms: _229  and  _230
REMARK   89  A    between atoms: _229  and  _232
REMARK   90  A    between atoms: _232  and  _233
REMARK   91  A    between atoms: _238  and  _240
REMARK   92  A    between atoms: _240  and  _241
REMARK   93  A    between atoms: _240  and  _243
REMARK   94  A    between atoms: _243  and  _244
REMARK   95  A    between atoms: _249  and  _250
REMARK   96  A    between atoms: _252  and  _254
REMARK   97  A    between atoms: _254  and  _255
REMARK   98  A    between atoms: _254  and  _257
REMARK   99  A    between atoms: _257  and  _258
REMARK  100  A    between atoms: _263  and  _264
REMARK  101  A    between atoms: _266  and  _268
REMARK  102  A    between atoms: _268  and  _269
REMARK  103  A    between atoms: _268  and  _271
REMARK  104  A    between atoms: _271  and  _272
REMARK  105  A    between atoms: _272  and  _273
REMARK  106  A    between atoms: _273  and  _274
REMARK  107  A    between atoms: _283  and  _285
REMARK  108  A    between atoms: _285  and  _286
REMARK  109  A    between atoms: _285  and  _288
REMARK  110  A    between atoms: _288  and  _289
REMARK  111  A    between atoms: _289  and  _290
REMARK  112  A    between atoms: _290  and  _291
REMARK  113  A    between atoms: _291  and  _292
REMARK  114  A    between atoms: _296  and  _298
REMARK  115  A    between atoms: _298  and  _299
REMARK  116  A    between atoms: _298  and  _301
REMARK  117  A    between atoms: _301  and  _302
REMARK  118  A    between atoms: _302  and  _303
REMARK  119  A    between atoms: _306  and  _308
REMARK  120  A    between atoms: _308  and  _309
REMARK  121  A    between atoms: _308  and  _311
REMARK  122  A    between atoms: _314  and  _316
REMARK  123  A    between atoms: _316  and  _317
REMARK  124  A    between atoms: _316  and  _319
REMARK  125  A    between atoms: _319  and  _320
REMARK  126  A    between atoms: _330  and  _332
REMARK  127  A    between atoms: _332  and  _333
REMARK  128  A    between atoms: _332  and  _335
REMARK  129  A    between atoms: _335  and  _336
REMARK  130  A    between atoms: _336  and  _337
REMARK                            x       y       z     vdW  Elec       q    Type
REMARK                         _______ _______ _______ _____ _____    ______ ____
ROOT
ATOM      1  O   HOH     1      22.594 -10.277  13.508  0.00  0.00    +0.000 OA
ENDROOT
TORSDOF 0
REMARK  Name = ../refined-set-2016/3arw/3arw_pocket.pdb
REMARK  130 active torsions:
REMARK  status: ('A' for Active; 'I' for Inactive)
REMARK    1  A    between atoms: _1  and  _3
REMARK    2  A    between atoms: _3  and  _4
REMARK    3  A    between atoms: _3  and  _6
REMARK    4  A    between atoms: _6  and  _7
REMARK    5  A    between atoms: _17  and  _19
REMARK    6  A    between atoms: _19  and  _20
REMARK    7  A    between atoms: _19  and  _22
REMARK    8  A    between atoms: _22  and  _23
REMARK    9  A    between atoms: _29  and  _31
REMARK   10  A    between atoms: _31  and  _32
REMARK   11  A    between atoms: _31  and  _34
REMARK   12  A    between atoms: _34  and  _35
REMARK   13  A    between atoms: _37  and  _39
REMARK   14  A    between atoms: _39  and  _40
REMARK   15  A    between atoms: _39  and  _42
REMARK   16  A    between atoms: _42  and  _43
REMARK   17  A    between atoms: _45  and  _47
REMARK   18  A    between atoms: _47  and  _48
REMARK   19  A    between atoms: _47  and  _50
REMARK   20  A    between atoms: _53  and  _55
REMARK   21  A    between atoms: _55  and  _56
REMARK   22  A    between atoms: _58  and  _60
REMARK   23  A    between atoms: _60  and  _61
REMARK   24  A    between atoms: _60  and  _63
REMARK   25  A    between atoms: _63  and  _64
REMARK   26  A    between atoms: _74  and  _76
REMARK   27  A    between atoms: _76  and  _77
REMARK   28  A    between atoms: _76  and  _79
REMARK   29  A    between atoms: _79  and  _80
REMARK   30  A    between atoms: _83  and  _85
REMARK   31  A    between atoms: _85  and  _86
REMARK   32  A    between atoms: _85  and  _88
REMARK   33  A    between atoms: _88  and  _89
REMARK   34  A    between atoms: _92  and  _94
REMARK   35  A    between atoms: _94  and  _95
REMARK   36  A    between atoms: _94  and  _97
REMARK   37  A    between atoms: _97  and  _98
REMARK   38  A    between atoms: _98  and  _99
REMARK   39  A    between atoms: _102  and  _104
REMARK   40  A    between atoms: _104  and  _105
REMARK   41  A    between atoms: _104  and  _107
REMARK   42  A    between atoms: _107  and  _108
REMARK   43  A    between atoms: _114  and  _116
REMARK   44  A    between atoms: _116  and  _117
REMARK   45  A    between atoms: _119  and  _121
REMARK   46  A    between atoms: _121  and  _122
REMARK   47  A    between atoms: _124  and  _126
REMARK   48  A    between atoms: _126  and  _127
REMARK   49  A    between atoms: _130  and  _132
REMARK   50  A    between atoms: _132  and  _133
REMARK   51  A    between atoms: _132  and  _135
REMARK   52  A    between atoms: _135  and  _136
REMARK   53  A    between atoms: _136  and  _137
REMARK   54  A    between atoms: _137  and  _138
REMARK   55  A    between atoms: _138  and  _139
REMARK   56  A    between atoms: _143  and  _145
REMARK   57  A    between atoms: _145  and  _146
REMARK   58  A    between atoms: _145  and  _148
REMARK   59  A    between atoms: _148  and  _149
REMARK   60  A    between atoms: _149  and  _150
REMARK   61  A    between atoms: _152  and  _154
REMARK   62  A    between atoms: _154  and  _155
REMARK   63  A    between atoms: _154  and  _157
REMARK   64  A    between atoms: _157  and  _158
REMARK   65  A    between atoms: _163  and  _164
REMARK   66  A    between atoms: _166  and  _168
REMARK   67  A    between atoms: _168  and  _169
REMARK   68  A    between atoms: _168  and  _171
REMARK   69  A    between atoms: _171  and  _172
REMARK   70  A    between atoms: _175  and  _177
REMARK   71  A    between atoms: _177  and  _178
REMARK   72  A    between atoms: _177  and  _180
REMARK   73  A    between atoms: _180  and  _181
REMARK   74  A    between atoms: _187  and  _189
REMARK   75  A    between atoms: _189  and  _190
REMARK   76  A    between atoms: _189  and  _192
REMARK   77  A    between atoms: _192  and  _193
REMARK   78  A    between atoms: _198  and  _199
REMARK   79  A    between atoms: _201  and  _203
REMARK   80  A    between atoms: _203  and  _204
REMARK   81  A    between atoms: _206  and  _208
REMARK   82  A    between atoms: _208  and  _209
REMARK   83  A    between atoms: _211  and  _213
REMARK   84  A    between atoms: _213  and  _214
REMARK   85  A    between atoms: _213  and  _216
REMARK   86  A    between atoms: _216  and  _217
REMARK   87  A    between atoms: _227  and  _229
REMARK   88  A    between atoms: _229  and  _230
REMARK   89  A    between atoms: _229  and  _232
REMARK   90  A    between atoms: _232  and  _233
REMARK   91  A    between atoms: _238  and  _240
REMARK   92  A    between atoms: _240  and  _241
REMARK   93  A    between atoms: _240  and  _243
REMARK   94  A    between atoms: _243  and  _244
REMARK   95  A    between atoms: _249  and  _250
REMARK   96  A    between atoms: _252  and  _254
REMARK   97  A    between atoms: _254  and  _255
REMARK   98  A    between atoms: _254  and  _257
REMARK   99  A    between atoms: _257  and  _258
REMARK  100  A    between atoms: _263  and  _264
REMARK  101  A    between atoms: _266  and  _268
REMARK  102  A    between atoms: _268  and  _269
REMARK  103  A    between atoms: _268  and  _271
REMARK  104  A    between atoms: _271  and  _272
REMARK  105  A    between atoms: _272  and  _273
REMARK  106  A    between atoms: _273  and  _274
REMARK  107  A    between atoms: _283  and  _285
REMARK  108  A    between atoms: _285  and  _286
REMARK  109  A    between atoms: _285  and  _288
REMARK  110  A    between atoms: _288  and  _289
REMARK  111  A    between atoms: _289  and  _290
REMARK  112  A    between atoms: _290  and  _291
REMARK  113  A    between atoms: _291  and  _292
REMARK  114  A    between atoms: _296  and  _298
REMARK  115  A    between atoms: _298  and  _299
REMARK  116  A    between atoms: _298  and  _301
REMARK  117  A    between atoms: _301  and  _302
REMARK  118  A    between atoms: _302  and  _303
REMARK  119  A    between atoms: _306  and  _308
REMARK  120  A    between atoms: _308  and  _309
REMARK  121  A    between atoms: _308  and  _311
REMARK  122  A    between atoms: _314  and  _316
REMARK  123  A    between atoms: _316  and  _317
REMARK  124  A    between atoms: _316  and  _319
REMARK  125  A    between atoms: _319  and  _320
REMARK  126  A    between atoms: _330  and  _332
REMARK  127  A    between atoms: _332  and  _333
REMARK  128  A    between atoms: _332  and  _335
REMARK  129  A    between atoms: _335  and  _336
REMARK  130  A    between atoms: _336  and  _337
REMARK                            x       y       z     vdW  Elec       q    Type
REMARK                         _______ _______ _______ _____ _____    ______ ____
ROOT
ATOM      1  O   HOH     1      21.162 -13.577  24.167  0.00  0.00    +0.000 OA
ENDROOT
TORSDOF 0
REMARK  Name = ../refined-set-2016/3arw/3arw_pocket.pdb
REMARK  130 active torsions:
REMARK  status: ('A' for Active; 'I' for Inactive)
REMARK    1  A    between atoms: _1  and  _3
REMARK    2  A    between atoms: _3  and  _4
REMARK    3  A    between atoms: _3  and  _6
REMARK    4  A    between atoms: _6  and  _7
REMARK    5  A    between atoms: _17  and  _19
REMARK    6  A    between atoms: _19  and  _20
REMARK    7  A    between atoms: _19  and  _22
REMARK    8  A    between atoms: _22  and  _23
REMARK    9  A    between atoms: _29  and  _31
REMARK   10  A    between atoms: _31  and  _32
REMARK   11  A    between atoms: _31  and  _34
REMARK   12  A    between atoms: _34  and  _35
REMARK   13  A    between atoms: _37  and  _39
REMARK   14  A    between atoms: _39  and  _40
REMARK   15  A    between atoms: _39  and  _42
REMARK   16  A    between atoms: _42  and  _43
REMARK   17  A    between atoms: _45  and  _47
REMARK   18  A    between atoms: _47  and  _48
REMARK   19  A    between atoms: _47  and  _50
REMARK   20  A    between atoms: _53  and  _55
REMARK   21  A    between atoms: _55  and  _56
REMARK   22  A    between atoms: _58  and  _60
REMARK   23  A    between atoms: _60  and  _61
REMARK   24  A    between atoms: _60  and  _63
REMARK   25  A    between atoms: _63  and  _64
REMARK   26  A    between atoms: _74  and  _76
REMARK   27  A    between atoms: _76  and  _77
REMARK   28  A    between atoms: _76  and  _79
REMARK   29  A    between atoms: _79  and  _80
REMARK   30  A    between atoms: _83  and  _85
REMARK   31  A    between atoms: _85  and  _86
REMARK   32  A    between atoms: _85  and  _88
REMARK   33  A    between atoms: _88  and  _89
REMARK   34  A    between atoms: _92  and  _94
REMARK   35  A    between atoms: _94  and  _95
REMARK   36  A    between atoms: _94  and  _97
REMARK   37  A    between atoms: _97  and  _98
REMARK   38  A    between atoms: _98  and  _99
REMARK   39  A    between atoms: _102  and  _104
REMARK   40  A    between atoms: _104  and  _105
REMARK   41  A    between atoms: _104  and  _107
REMARK   42  A    between atoms: _107  and  _108
REMARK   43  A    between atoms: _114  and  _116
REMARK   44  A    between atoms: _116  and  _117
REMARK   45  A    between atoms: _119  and  _121
REMARK   46  A    between atoms: _121  and  _122
REMARK   47  A    between atoms: _124  and  _126
REMARK   48  A    between atoms: _126  and  _127
REMARK   49  A    between atoms: _130  and  _132
REMARK   50  A    between atoms: _132  and  _133
REMARK   51  A    between atoms: _132  and  _135
REMARK   52  A    between atoms: _135  and  _136
REMARK   53  A    between atoms: _136  and  _137
REMARK   54  A    between atoms: _137  and  _138
REMARK   55  A    between atoms: _138  and  _139
REMARK   56  A    between atoms: _143  and  _145
REMARK   57  A    between atoms: _145  and  _146
REMARK   58  A    between atoms: _145  and  _148
REMARK   59  A    between atoms: _148  and  _149
REMARK   60  A    between atoms: _149  and  _150
REMARK   61  A    between atoms: _152  and  _154
REMARK   62  A    between atoms: _154  and  _155
REMARK   63  A    between atoms: _154  and  _157
REMARK   64  A    between atoms: _157  and  _158
REMARK   65  A    between atoms: _163  and  _164
REMARK   66  A    between atoms: _166  and  _168
REMARK   67  A    between atoms: _168  and  _169
REMARK   68  A    between atoms: _168  and  _171
REMARK   69  A    between atoms: _171  and  _172
REMARK   70  A    between atoms: _175  and  _177
REMARK   71  A    between atoms: _177  and  _178
REMARK   72  A    between atoms: _177  and  _180
REMARK   73  A    between atoms: _180  and  _181
REMARK   74  A    between atoms: _187  and  _189
REMARK   75  A    between atoms: _189  and  _190
REMARK   76  A    between atoms: _189  and  _192
REMARK   77  A    between atoms: _192  and  _193
REMARK   78  A    between atoms: _198  and  _199
REMARK   79  A    between atoms: _201  and  _203
REMARK   80  A    between atoms: _203  and  _204
REMARK   81  A    between atoms: _206  and  _208
REMARK   82  A    between atoms: _208  and  _209
REMARK   83  A    between atoms: _211  and  _213
REMARK   84  A    between atoms: _213  and  _214
REMARK   85  A    between atoms: _213  and  _216
REMARK   86  A    between atoms: _216  and  _217
REMARK   87  A    between atoms: _227  and  _229
REMARK   88  A    between atoms: _229  and  _230
REMARK   89  A    between atoms: _229  and  _232
REMARK   90  A    between atoms: _232  and  _233
REMARK   91  A    between atoms: _238  and  _240
REMARK   92  A    between atoms: _240  and  _241
REMARK   93  A    between atoms: _240  and  _243
REMARK   94  A    between atoms: _243  and  _244
REMARK   95  A    between atoms: _249  and  _250
REMARK   96  A    between atoms: _252  and  _254
REMARK   97  A    between atoms: _254  and  _255
REMARK   98  A    between atoms: _254  and  _257
REMARK   99  A    between atoms: _257  and  _258
REMARK  100  A    between atoms: _263  and  _264
REMARK  101  A    between atoms: _266  and  _268
REMARK  102  A    between atoms: _268  and  _269
REMARK  103  A    between atoms: _268  and  _271
REMARK  104  A    between atoms: _271  and  _272
REMARK  105  A    between atoms: _272  and  _273
REMARK  106  A    between atoms: _273  and  _274
REMARK  107  A    between atoms: _283  and  _285
REMARK  108  A    between atoms: _285  and  _286
REMARK  109  A    between atoms: _285  and  _288
REMARK  110  A    between atoms: _288  and  _289
REMARK  111  A    between atoms: _289  and  _290
REMARK  112  A    between atoms: _290  and  _291
REMARK  113  A    between atoms: _291  and  _292
REMARK  114  A    between atoms: _296  and  _298
REMARK  115  A    between atoms: _298  and  _299
REMARK  116  A    between atoms: _298  and  _301
REMARK  117  A    between atoms: _301  and  _302
REMARK  118  A    between atoms: _302  and  _303
REMARK  119  A    between atoms: _306  and  _308
REMARK  120  A    between atoms: _308  and  _309
REMARK  121  A    between atoms: _308  and  _311
REMARK  122  A    between atoms: _314  and  _316
REMARK  123  A    between atoms: _316  and  _317
REMARK  124  A    between atoms: _316  and  _319
REMARK  125  A    between atoms: _319  and  _320
REMARK  126  A    between atoms: _330  and  _332
REMARK  127  A    between atoms: _332  and  _333
REMARK  128  A    between atoms: _332  and  _335
REMARK  129  A    between atoms: _335  and  _336
REMARK  130  A    between atoms: _336  and  _337
REMARK                            x       y       z     vdW  Elec       q    Type
REMARK                         _______ _______ _______ _____ _____    ______ ____
ROOT
ATOM      1  O   HOH     1      13.314 -11.015  19.161  0.00  0.00    +0.000 OA
ENDROOT
TORSDOF 0
REMARK  Name = ../refined-set-2016/3arw/3arw_pocket.pdb
REMARK  130 active torsions:
REMARK  status: ('A' for Active; 'I' for Inactive)
REMARK    1  A    between atoms: _1  and  _3
REMARK    2  A    between atoms: _3  and  _4
REMARK    3  A    between atoms: _3  and  _6
REMARK    4  A    between atoms: _6  and  _7
REMARK    5  A    between atoms: _17  and  _19
REMARK    6  A    between atoms: _19  and  _20
REMARK    7  A    between atoms: _19  and  _22
REMARK    8  A    between atoms: _22  and  _23
REMARK    9  A    between atoms: _29  and  _31
REMARK   10  A    between atoms: _31  and  _32
REMARK   11  A    between atoms: _31  and  _34
REMARK   12  A    between atoms: _34  and  _35
REMARK   13  A    between atoms: _37  and  _39
REMARK   14  A    between atoms: _39  and  _40
REMARK   15  A    between atoms: _39  and  _42
REMARK   16  A    between atoms: _42  and  _43
REMARK   17  A    between atoms: _45  and  _47
REMARK   18  A    between atoms: _47  and  _48
REMARK   19  A    between atoms: _47  and  _50
REMARK   20  A    between atoms: _53  and  _55
REMARK   21  A    between atoms: _55  and  _56
REMARK   22  A    between atoms: _58  and  _60
REMARK   23  A    between atoms: _60  and  _61
REMARK   24  A    between atoms: _60  and  _63
REMARK   25  A    between atoms: _63  and  _64
REMARK   26  A    between atoms: _74  and  _76
REMARK   27  A    between atoms: _76  and  _77
REMARK   28  A    between atoms: _76  and  _79
REMARK   29  A    between atoms: _79  and  _80
REMARK   30  A    between atoms: _83  and  _85
REMARK   31  A    between atoms: _85  and  _86
REMARK   32  A    between atoms: _85  and  _88
REMARK   33  A    between atoms: _88  and  _89
REMARK   34  A    between atoms: _92  and  _94
REMARK   35  A    between atoms: _94  and  _95
REMARK   36  A    between atoms: _94  and  _97
REMARK   37  A    between atoms: _97  and  _98
REMARK   38  A    between atoms: _98  and  _99
REMARK   39  A    between atoms: _102  and  _104
REMARK   40  A    between atoms: _104  and  _105
REMARK   41  A    between atoms: _104  and  _107
REMARK   42  A    between atoms: _107  and  _108
REMARK   43  A    between atoms: _114  and  _116
REMARK   44  A    between atoms: _116  and  _117
REMARK   45  A    between atoms: _119  and  _121
REMARK   46  A    between atoms: _121  and  _122
REMARK   47  A    between atoms: _124  and  _126
REMARK   48  A    between atoms: _126  and  _127
REMARK   49  A    between atoms: _130  and  _132
REMARK   50  A    between atoms: _132  and  _133
REMARK   51  A    between atoms: _132  and  _135
REMARK   52  A    between atoms: _135  and  _136
REMARK   53  A    between atoms: _136  and  _137
REMARK   54  A    between atoms: _137  and  _138
REMARK   55  A    between atoms: _138  and  _139
REMARK   56  A    between atoms: _143  and  _145
REMARK   57  A    between atoms: _145  and  _146
REMARK   58  A    between atoms: _145  and  _148
REMARK   59  A    between atoms: _148  and  _149
REMARK   60  A    between atoms: _149  and  _150
REMARK   61  A    between atoms: _152  and  _154
REMARK   62  A    between atoms: _154  and  _155
REMARK   63  A    between atoms: _154  and  _157
REMARK   64  A    between atoms: _157  and  _158
REMARK   65  A    between atoms: _163  and  _164
REMARK   66  A    between atoms: _166  and  _168
REMARK   67  A    between atoms: _168  and  _169
REMARK   68  A    between atoms: _168  and  _171
REMARK   69  A    between atoms: _171  and  _172
REMARK   70  A    between atoms: _175  and  _177
REMARK   71  A    between atoms: _177  and  _178
REMARK   72  A    between atoms: _177  and  _180
REMARK   73  A    between atoms: _180  and  _181
REMARK   74  A    between atoms: _187  and  _189
REMARK   75  A    between atoms: _189  and  _190
REMARK   76  A    between atoms: _189  and  _192
REMARK   77  A    between atoms: _192  and  _193
REMARK   78  A    between atoms: _198  and  _199
REMARK   79  A    between atoms: _201  and  _203
REMARK   80  A    between atoms: _203  and  _204
REMARK   81  A    between atoms: _206  and  _208
REMARK   82  A    between atoms: _208  and  _209
REMARK   83  A    between atoms: _211  and  _213
REMARK   84  A    between atoms: _213  and  _214
REMARK   85  A    between atoms: _213  and  _216
REMARK   86  A    between atoms: _216  and  _217
REMARK   87  A    between atoms: _227  and  _229
REMARK   88  A    between atoms: _229  and  _230
REMARK   89  A    between atoms: _229  and  _232
REMARK   90  A    between atoms: _232  and  _233
REMARK   91  A    between atoms: _238  and  _240
REMARK   92  A    between atoms: _240  and  _241
REMARK   93  A    between atoms: _240  and  _243
REMARK   94  A    between atoms: _243  and  _244
REMARK   95  A    between atoms: _249  and  _250
REMARK   96  A    between atoms: _252  and  _254
REMARK   97  A    between atoms: _254  and  _255
REMARK   98  A    between atoms: _254  and  _257
REMARK   99  A    between atoms: _257  and  _258
REMARK  100  A    between atoms: _263  and  _264
REMARK  101  A    between atoms: _266  and  _268
REMARK  102  A    between atoms: _268  and  _269
REMARK  103  A    between atoms: _268  and  _271
REMARK  104  A    between atoms: _271  and  _272
REMARK  105  A    between atoms: _272  and  _273
REMARK  106  A    between atoms: _273  and  _274
REMARK  107  A    between atoms: _283  and  _285
REMARK  108  A    between atoms: _285  and  _286
REMARK  109  A    between atoms: _285  and  _288
REMARK  110  A    between atoms: _288  and  _289
REMARK  111  A    between atoms: _289  and  _290
REMARK  112  A    between atoms: _290  and  _291
REMARK  113  A    between atoms: _291  and  _292
REMARK  114  A    between atoms: _296  and  _298
REMARK  115  A    between atoms: _298  and  _299
REMARK  116  A    between atoms: _298  and  _301
REMARK  117  A    between atoms: _301  and  _302
REMARK  118  A    between atoms: _302  and  _303
REMARK  119  A    between atoms: _306  and  _308
REMARK  120  A    between atoms: _308  and  _309
REMARK  121  A    between atoms: _308  and  _311
REMARK  122  A    between atoms: _314  and  _316
REMARK  123  A    between atoms: _316  and  _317
REMARK  124  A    between atoms: _316  and  _319
REMARK  125  A    between atoms: _319  and  _320
REMARK  126  A    between atoms: _330  and  _332
REMARK  127  A    between atoms: _332  and  _333
REMARK  128  A    between atoms: _332  and  _335
REMARK  129  A    between atoms: _335  and  _336
REMARK  130  A    between atoms: _336  and  _337
REMARK                            x       y       z     vdW  Elec       q    Type
REMARK                         _______ _______ _______ _____ _____    ______ ____
ROOT
ATOM      1  O   HOH     1       8.053  -9.838  20.093  0.00  0.00    +0.000 OA
ENDROOT
TORSDOF 0
REMARK  Name = ../refined-set-2016/3arw/3arw_pocket.pdb
REMARK  130 active torsions:
REMARK  status: ('A' for Active; 'I' for Inactive)
REMARK    1  A    between atoms: _1  and  _3
REMARK    2  A    between atoms: _3  and  _4
REMARK    3  A    between atoms: _3  and  _6
REMARK    4  A    between atoms: _6  and  _7
REMARK    5  A    between atoms: _17  and  _19
REMARK    6  A    between atoms: _19  and  _20
REMARK    7  A    between atoms: _19  and  _22
REMARK    8  A    between atoms: _22  and  _23
REMARK    9  A    between atoms: _29  and  _31
REMARK   10  A    between atoms: _31  and  _32
REMARK   11  A    between atoms: _31  and  _34
REMARK   12  A    between atoms: _34  and  _35
REMARK   13  A    between atoms: _37  and  _39
REMARK   14  A    between atoms: _39  and  _40
REMARK   15  A    between atoms: _39  and  _42
REMARK   16  A    between atoms: _42  and  _43
REMARK   17  A    between atoms: _45  and  _47
REMARK   18  A    between atoms: _47  and  _48
REMARK   19  A    between atoms: _47  and  _50
REMARK   20  A    between atoms: _53  and  _55
REMARK   21  A    between atoms: _55  and  _56
REMARK   22  A    between atoms: _58  and  _60
REMARK   23  A    between atoms: _60  and  _61
REMARK   24  A    between atoms: _60  and  _63
REMARK   25  A    between atoms: _63  and  _64
REMARK   26  A    between atoms: _74  and  _76
REMARK   27  A    between atoms: _76  and  _77
REMARK   28  A    between atoms: _76  and  _79
REMARK   29  A    between atoms: _79  and  _80
REMARK   30  A    between atoms: _83  and  _85
REMARK   31  A    between atoms: _85  and  _86
REMARK   32  A    between atoms: _85  and  _88
REMARK   33  A    between atoms: _88  and  _89
REMARK   34  A    between atoms: _92  and  _94
REMARK   35  A    between atoms: _94  and  _95
REMARK   36  A    between atoms: _94  and  _97
REMARK   37  A    between atoms: _97  and  _98
REMARK   38  A    between atoms: _98  and  _99
REMARK   39  A    between atoms: _102  and  _104
REMARK   40  A    between atoms: _104  and  _105
REMARK   41  A    between atoms: _104  and  _107
REMARK   42  A    between atoms: _107  and  _108
REMARK   43  A    between atoms: _114  and  _116
REMARK   44  A    between atoms: _116  and  _117
REMARK   45  A    between atoms: _119  and  _121
REMARK   46  A    between atoms: _121  and  _122
REMARK   47  A    between atoms: _124  and  _126
REMARK   48  A    between atoms: _126  and  _127
REMARK   49  A    between atoms: _130  and  _132
REMARK   50  A    between atoms: _132  and  _133
REMARK   51  A    between atoms: _132  and  _135
REMARK   52  A    between atoms: _135  and  _136
REMARK   53  A    between atoms: _136  and  _137
REMARK   54  A    between atoms: _137  and  _138
REMARK   55  A    between atoms: _138  and  _139
REMARK   56  A    between atoms: _143  and  _145
REMARK   57  A    between atoms: _145  and  _146
REMARK   58  A    between atoms: _145  and  _148
REMARK   59  A    between atoms: _148  and  _149
REMARK   60  A    between atoms: _149  and  _150
REMARK   61  A    between atoms: _152  and  _154
REMARK   62  A    between atoms: _154  and  _155
REMARK   63  A    between atoms: _154  and  _157
REMARK   64  A    between atoms: _157  and  _158
REMARK   65  A    between atoms: _163  and  _164
REMARK   66  A    between atoms: _166  and  _168
REMARK   67  A    between atoms: _168  and  _169
REMARK   68  A    between atoms: _168  and  _171
REMARK   69  A    between atoms: _171  and  _172
REMARK   70  A    between atoms: _175  and  _177
REMARK   71  A    between atoms: _177  and  _178
REMARK   72  A    between atoms: _177  and  _180
REMARK   73  A    between atoms: _180  and  _181
REMARK   74  A    between atoms: _187  and  _189
REMARK   75  A    between atoms: _189  and  _190
REMARK   76  A    between atoms: _189  and  _192
REMARK   77  A    between atoms: _192  and  _193
REMARK   78  A    between atoms: _198  and  _199
REMARK   79  A    between atoms: _201  and  _203
REMARK   80  A    between atoms: _203  and  _204
REMARK   81  A    between atoms: _206  and  _208
REMARK   82  A    between atoms: _208  and  _209
REMARK   83  A    between atoms: _211  and  _213
REMARK   84  A    between atoms: _213  and  _214
REMARK   85  A    between atoms: _213  and  _216
REMARK   86  A    between atoms: _216  and  _217
REMARK   87  A    between atoms: _227  and  _229
REMARK   88  A    between atoms: _229  and  _230
REMARK   89  A    between atoms: _229  and  _232
REMARK   90  A    between atoms: _232  and  _233
REMARK   91  A    between atoms: _238  and  _240
REMARK   92  A    between atoms: _240  and  _241
REMARK   93  A    between atoms: _240  and  _243
REMARK   94  A    between atoms: _243  and  _244
REMARK   95  A    between atoms: _249  and  _250
REMARK   96  A    between atoms: _252  and  _254
REMARK   97  A    between atoms: _254  and  _255
REMARK   98  A    between atoms: _254  and  _257
REMARK   99  A    between atoms: _257  and  _258
REMARK  100  A    between atoms: _263  and  _264
REMARK  101  A    between atoms: _266  and  _268
REMARK  102  A    between atoms: _268  and  _269
REMARK  103  A    between atoms: _268  and  _271
REMARK  104  A    between atoms: _271  and  _272
REMARK  105  A    between atoms: _272  and  _273
REMARK  106  A    between atoms: _273  and  _274
REMARK  107  A    between atoms: _283  and  _285
REMARK  108  A    between atoms: _285  and  _286
REMARK  109  A    between atoms: _285  and  _288
REMARK  110  A    between atoms: _288  and  _289
REMARK  111  A    between atoms: _289  and  _290
REMARK  112  A    between atoms: _290  and  _291
REMARK  113  A    between atoms: _291  and  _292
REMARK  114  A    between atoms: _296  and  _298
REMARK  115  A    between atoms: _298  and  _299
REMARK  116  A    between atoms: _298  and  _301
REMARK  117  A    between atoms: _301  and  _302
REMARK  118  A    between atoms: _302  and  _303
REMARK  119  A    between atoms: _306  and  _308
REMARK  120  A    between atoms: _308  and  _309
REMARK  121  A    between atoms: _308  and  _311
REMARK  122  A    between atoms: _314  and  _316
REMARK  123  A    between atoms: _316  and  _317
REMARK  124  A    between atoms: _316  and  _319
REMARK  125  A    between atoms: _319  and  _320
REMARK  126  A    between atoms: _330  and  _332
REMARK  127  A    between atoms: _332  and  _333
REMARK  128  A    between atoms: _332  and  _335
REMARK  129  A    between atoms: _335  and  _336
REMARK  130  A    between atoms: _336  and  _337
REMARK                            x       y       z     vdW  Elec       q    Type
REMARK                         _______ _______ _______ _____ _____    ______ ____
ROOT
ATOM      1  O   HOH     1       8.492 -11.636  28.368  0.00  0.00    +0.000 OA
ENDROOT
TORSDOF 0
REMARK  Name = ../refined-set-2016/3arw/3arw_pocket.pdb
REMARK  130 active torsions:
REMARK  status: ('A' for Active; 'I' for Inactive)
REMARK    1  A    between atoms: _1  and  _3
REMARK    2  A    between atoms: _3  and  _4
REMARK    3  A    between atoms: _3  and  _6
REMARK    4  A    between atoms: _6  and  _7
REMARK    5  A    between atoms: _17  and  _19
REMARK    6  A    between atoms: _19  and  _20
REMARK    7  A    between atoms: _19  and  _22
REMARK    8  A    between atoms: _22  and  _23
REMARK    9  A    between atoms: _29  and  _31
REMARK   10  A    between atoms: _31  and  _32
REMARK   11  A    between atoms: _31  and  _34
REMARK   12  A    between atoms: _34  and  _35
REMARK   13  A    between atoms: _37  and  _39
REMARK   14  A    between atoms: _39  and  _40
REMARK   15  A    between atoms: _39  and  _42
REMARK   16  A    between atoms: _42  and  _43
REMARK   17  A    between atoms: _45  and  _47
REMARK   18  A    between atoms: _47  and  _48
REMARK   19  A    between atoms: _47  and  _50
REMARK   20  A    between atoms: _53  and  _55
REMARK   21  A    between atoms: _55  and  _56
REMARK   22  A    between atoms: _58  and  _60
REMARK   23  A    between atoms: _60  and  _61
REMARK   24  A    between atoms: _60  and  _63
REMARK   25  A    between atoms: _63  and  _64
REMARK   26  A    between atoms: _74  and  _76
REMARK   27  A    between atoms: _76  and  _77
REMARK   28  A    between atoms: _76  and  _79
REMARK   29  A    between atoms: _79  and  _80
REMARK   30  A    between atoms: _83  and  _85
REMARK   31  A    between atoms: _85  and  _86
REMARK   32  A    between atoms: _85  and  _88
REMARK   33  A    between atoms: _88  and  _89
REMARK   34  A    between atoms: _92  and  _94
REMARK   35  A    between atoms: _94  and  _95
REMARK   36  A    between atoms: _94  and  _97
REMARK   37  A    between atoms: _97  and  _98
REMARK   38  A    between atoms: _98  and  _99
REMARK   39  A    between atoms: _102  and  _104
REMARK   40  A    between atoms: _104  and  _105
REMARK   41  A    between atoms: _104  and  _107
REMARK   42  A    between atoms: _107  and  _108
REMARK   43  A    between atoms: _114  and  _116
REMARK   44  A    between atoms: _116  and  _117
REMARK   45  A    between atoms: _119  and  _121
REMARK   46  A    between atoms: _121  and  _122
REMARK   47  A    between atoms: _124  and  _126
REMARK   48  A    between atoms: _126  and  _127
REMARK   49  A    between atoms: _130  and  _132
REMARK   50  A    between atoms: _132  and  _133
REMARK   51  A    between atoms: _132  and  _135
REMARK   52  A    between atoms: _135  and  _136
REMARK   53  A    between atoms: _136  and  _137
REMARK   54  A    between atoms: _137  and  _138
REMARK   55  A    between atoms: _138  and  _139
REMARK   56  A    between atoms: _143  and  _145
REMARK   57  A    between atoms: _145  and  _146
REMARK   58  A    between atoms: _145  and  _148
REMARK   59  A    between atoms: _148  and  _149
REMARK   60  A    between atoms: _149  and  _150
REMARK   61  A    between atoms: _152  and  _154
REMARK   62  A    between atoms: _154  and  _155
REMARK   63  A    between atoms: _154  and  _157
REMARK   64  A    between atoms: _157  and  _158
REMARK   65  A    between atoms: _163  and  _164
REMARK   66  A    between atoms: _166  and  _168
REMARK   67  A    between atoms: _168  and  _169
REMARK   68  A    between atoms: _168  and  _171
REMARK   69  A    between atoms: _171  and  _172
REMARK   70  A    between atoms: _175  and  _177
REMARK   71  A    between atoms: _177  and  _178
REMARK   72  A    between atoms: _177  and  _180
REMARK   73  A    between atoms: _180  and  _181
REMARK   74  A    between atoms: _187  and  _189
REMARK   75  A    between atoms: _189  and  _190
REMARK   76  A    between atoms: _189  and  _192
REMARK   77  A    between atoms: _192  and  _193
REMARK   78  A    between atoms: _198  and  _199
REMARK   79  A    between atoms: _201  and  _203
REMARK   80  A    between atoms: _203  and  _204
REMARK   81  A    between atoms: _206  and  _208
REMARK   82  A    between atoms: _208  and  _209
REMARK   83  A    between atoms: _211  and  _213
REMARK   84  A    between atoms: _213  and  _214
REMARK   85  A    between atoms: _213  and  _216
REMARK   86  A    between atoms: _216  and  _217
REMARK   87  A    between atoms: _227  and  _229
REMARK   88  A    between atoms: _229  and  _230
REMARK   89  A    between atoms: _229  and  _232
REMARK   90  A    between atoms: _232  and  _233
REMARK   91  A    between atoms: _238  and  _240
REMARK   92  A    between atoms: _240  and  _241
REMARK   93  A    between atoms: _240  and  _243
REMARK   94  A    between atoms: _243  and  _244
REMARK   95  A    between atoms: _249  and  _250
REMARK   96  A    between atoms: _252  and  _254
REMARK   97  A    between atoms: _254  and  _255
REMARK   98  A    between atoms: _254  and  _257
REMARK   99  A    between atoms: _257  and  _258
REMARK  100  A    between atoms: _263  and  _264
REMARK  101  A    between atoms: _266  and  _268
REMARK  102  A    between atoms: _268  and  _269
REMARK  103  A    between atoms: _268  and  _271
REMARK  104  A    between atoms: _271  and  _272
REMARK  105  A    between atoms: _272  and  _273
REMARK  106  A    between atoms: _273  and  _274
REMARK  107  A    between atoms: _283  and  _285
REMARK  108  A    between atoms: _285  and  _286
REMARK  109  A    between atoms: _285  and  _288
REMARK  110  A    between atoms: _288  and  _289
REMARK  111  A    between atoms: _289  and  _290
REMARK  112  A    between atoms: _290  and  _291
REMARK  113  A    between atoms: _291  and  _292
REMARK  114  A    between atoms: _296  and  _298
REMARK  115  A    between atoms: _298  and  _299
REMARK  116  A    between atoms: _298  and  _301
REMARK  117  A    between atoms: _301  and  _302
REMARK  118  A    between atoms: _302  and  _303
REMARK  119  A    between atoms: _306  and  _308
REMARK  120  A    between atoms: _308  and  _309
REMARK  121  A    between atoms: _308  and  _311
REMARK  122  A    between atoms: _314  and  _316
REMARK  123  A    between atoms: _316  and  _317
REMARK  124  A    between atoms: _316  and  _319
REMARK  125  A    between atoms: _319  and  _320
REMARK  126  A    between atoms: _330  and  _332
REMARK  127  A    between atoms: _332  and  _333
REMARK  128  A    between atoms: _332  and  _335
REMARK  129  A    between atoms: _335  and  _336
REMARK  130  A    between atoms: _336  and  _337
REMARK                            x       y       z     vdW  Elec       q    Type
REMARK                         _______ _______ _______ _____ _____    ______ ____
ROOT
ATOM      1  O   HOH     1      21.102 -17.601  24.742  0.00  0.00    +0.000 OA
ENDROOT
TORSDOF 0
REMARK  Name = ../refined-set-2016/3arw/3arw_pocket.pdb
REMARK  130 active torsions:
REMARK  status: ('A' for Active; 'I' for Inactive)
REMARK    1  A    between atoms: _1  and  _3
REMARK    2  A    between atoms: _3  and  _4
REMARK    3  A    between atoms: _3  and  _6
REMARK    4  A    between atoms: _6  and  _7
REMARK    5  A    between atoms: _17  and  _19
REMARK    6  A    between atoms: _19  and  _20
REMARK    7  A    between atoms: _19  and  _22
REMARK    8  A    between atoms: _22  and  _23
REMARK    9  A    between atoms: _29  and  _31
REMARK   10  A    between atoms: _31  and  _32
REMARK   11  A    between atoms: _31  and  _34
REMARK   12  A    between atoms: _34  and  _35
REMARK   13  A    between atoms: _37  and  _39
REMARK   14  A    between atoms: _39  and  _40
REMARK   15  A    between atoms: _39  and  _42
REMARK   16  A    between atoms: _42  and  _43
REMARK   17  A    between atoms: _45  and  _47
REMARK   18  A    between atoms: _47  and  _48
REMARK   19  A    between atoms: _47  and  _50
REMARK   20  A    between atoms: _53  and  _55
REMARK   21  A    between atoms: _55  and  _56
REMARK   22  A    between atoms: _58  and  _60
REMARK   23  A    between atoms: _60  and  _61
REMARK   24  A    between atoms: _60  and  _63
REMARK   25  A    between atoms: _63  and  _64
REMARK   26  A    between atoms: _74  and  _76
REMARK   27  A    between atoms: _76  and  _77
REMARK   28  A    between atoms: _76  and  _79
REMARK   29  A    between atoms: _79  and  _80
REMARK   30  A    between atoms: _83  and  _85
REMARK   31  A    between atoms: _85  and  _86
REMARK   32  A    between atoms: _85  and  _88
REMARK   33  A    between atoms: _88  and  _89
REMARK   34  A    between atoms: _92  and  _94
REMARK   35  A    between atoms: _94  and  _95
REMARK   36  A    between atoms: _94  and  _97
REMARK   37  A    between atoms: _97  and  _98
REMARK   38  A    between atoms: _98  and  _99
REMARK   39  A    between atoms: _102  and  _104
REMARK   40  A    between atoms: _104  and  _105
REMARK   41  A    between atoms: _104  and  _107
REMARK   42  A    between atoms: _107  and  _108
REMARK   43  A    between atoms: _114  and  _116
REMARK   44  A    between atoms: _116  and  _117
REMARK   45  A    between atoms: _119  and  _121
REMARK   46  A    between atoms: _121  and  _122
REMARK   47  A    between atoms: _124  and  _126
REMARK   48  A    between atoms: _126  and  _127
REMARK   49  A    between atoms: _130  and  _132
REMARK   50  A    between atoms: _132  and  _133
REMARK   51  A    between atoms: _132  and  _135
REMARK   52  A    between atoms: _135  and  _136
REMARK   53  A    between atoms: _136  and  _137
REMARK   54  A    between atoms: _137  and  _138
REMARK   55  A    between atoms: _138  and  _139
REMARK   56  A    between atoms: _143  and  _145
REMARK   57  A    between atoms: _145  and  _146
REMARK   58  A    between atoms: _145  and  _148
REMARK   59  A    between atoms: _148  and  _149
REMARK   60  A    between atoms: _149  and  _150
REMARK   61  A    between atoms: _152  and  _154
REMARK   62  A    between atoms: _154  and  _155
REMARK   63  A    between atoms: _154  and  _157
REMARK   64  A    between atoms: _157  and  _158
REMARK   65  A    between atoms: _163  and  _164
REMARK   66  A    between atoms: _166  and  _168
REMARK   67  A    between atoms: _168  and  _169
REMARK   68  A    between atoms: _168  and  _171
REMARK   69  A    between atoms: _171  and  _172
REMARK   70  A    between atoms: _175  and  _177
REMARK   71  A    between atoms: _177  and  _178
REMARK   72  A    between atoms: _177  and  _180
REMARK   73  A    between atoms: _180  and  _181
REMARK   74  A    between atoms: _187  and  _189
REMARK   75  A    between atoms: _189  and  _190
REMARK   76  A    between atoms: _189  and  _192
REMARK   77  A    between atoms: _192  and  _193
REMARK   78  A    between atoms: _198  and  _199
REMARK   79  A    between atoms: _201  and  _203
REMARK   80  A    between atoms: _203  and  _204
REMARK   81  A    between atoms: _206  and  _208
REMARK   82  A    between atoms: _208  and  _209
REMARK   83  A    between atoms: _211  and  _213
REMARK   84  A    between atoms: _213  and  _214
REMARK   85  A    between atoms: _213  and  _216
REMARK   86  A    between atoms: _216  and  _217
REMARK   87  A    between atoms: _227  and  _229
REMARK   88  A    between atoms: _229  and  _230
REMARK   89  A    between atoms: _229  and  _232
REMARK   90  A    between atoms: _232  and  _233
REMARK   91  A    between atoms: _238  and  _240
REMARK   92  A    between atoms: _240  and  _241
REMARK   93  A    between atoms: _240  and  _243
REMARK   94  A    between atoms: _243  and  _244
REMARK   95  A    between atoms: _249  and  _250
REMARK   96  A    between atoms: _252  and  _254
REMARK   97  A    between atoms: _254  and  _255
REMARK   98  A    between atoms: _254  and  _257
REMARK   99  A    between atoms: _257  and  _258
REMARK  100  A    between atoms: _263  and  _264
REMARK  101  A    between atoms: _266  and  _268
REMARK  102  A    between atoms: _268  and  _269
REMARK  103  A    between atoms: _268  and  _271
REMARK  104  A    between atoms: _271  and  _272
REMARK  105  A    between atoms: _272  and  _273
REMARK  106  A    between atoms: _273  and  _274
REMARK  107  A    between atoms: _283  and  _285
REMARK  108  A    between atoms: _285  and  _286
REMARK  109  A    between atoms: _285  and  _288
REMARK  110  A    between atoms: _288  and  _289
REMARK  111  A    between atoms: _289  and  _290
REMARK  112  A    between atoms: _290  and  _291
REMARK  113  A    between atoms: _291  and  _292
REMARK  114  A    between atoms: _296  and  _298
REMARK  115  A    between atoms: _298  and  _299
REMARK  116  A    between atoms: _298  and  _301
REMARK  117  A    between atoms: _301  and  _302
REMARK  118  A    between atoms: _302  and  _303
REMARK  119  A    between atoms: _306  and  _308
REMARK  120  A    between atoms: _308  and  _309
REMARK  121  A    between atoms: _308  and  _311
REMARK  122  A    between atoms: _314  and  _316
REMARK  123  A    between atoms: _316  and  _317
REMARK  124  A    between atoms: _316  and  _319
REMARK  125  A    between atoms: _319  and  _320
REMARK  126  A    between atoms: _330  and  _332
REMARK  127  A    between atoms: _332  and  _333
REMARK  128  A    between atoms: _332  and  _335
REMARK  129  A    between atoms: _335  and  _336
REMARK  130  A    between atoms: _336  and  _337
REMARK                            x       y       z     vdW  Elec       q    Type
REMARK                         _______ _______ _______ _____ _____    ______ ____
ROOT
ATOM      1  O   HOH     1      11.343  -7.081  20.012  0.00  0.00    +0.000 OA
ENDROOT
TORSDOF 0
REMARK  Name = ../refined-set-2016/3arw/3arw_pocket.pdb
REMARK  130 active torsions:
REMARK  status: ('A' for Active; 'I' for Inactive)
REMARK    1  A    between atoms: _1  and  _3
REMARK    2  A    between atoms: _3  and  _4
REMARK    3  A    between atoms: _3  and  _6
REMARK    4  A    between atoms: _6  and  _7
REMARK    5  A    between atoms: _17  and  _19
REMARK    6  A    between atoms: _19  and  _20
REMARK    7  A    between atoms: _19  and  _22
REMARK    8  A    between atoms: _22  and  _23
REMARK    9  A    between atoms: _29  and  _31
REMARK   10  A    between atoms: _31  and  _32
REMARK   11  A    between atoms: _31  and  _34
REMARK   12  A    between atoms: _34  and  _35
REMARK   13  A    between atoms: _37  and  _39
REMARK   14  A    between atoms: _39  and  _40
REMARK   15  A    between atoms: _39  and  _42
REMARK   16  A    between atoms: _42  and  _43
REMARK   17  A    between atoms: _45  and  _47
REMARK   18  A    between atoms: _47  and  _48
REMARK   19  A    between atoms: _47  and  _50
REMARK   20  A    between atoms: _53  and  _55
REMARK   21  A    between atoms: _55  and  _56
REMARK   22  A    between atoms: _58  and  _60
REMARK   23  A    between atoms: _60  and  _61
REMARK   24  A    between atoms: _60  and  _63
REMARK   25  A    between atoms: _63  and  _64
REMARK   26  A    between atoms: _74  and  _76
REMARK   27  A    between atoms: _76  and  _77
REMARK   28  A    between atoms: _76  and  _79
REMARK   29  A    between atoms: _79  and  _80
REMARK   30  A    between atoms: _83  and  _85
REMARK   31  A    between atoms: _85  and  _86
REMARK   32  A    between atoms: _85  and  _88
REMARK   33  A    between atoms: _88  and  _89
REMARK   34  A    between atoms: _92  and  _94
REMARK   35  A    between atoms: _94  and  _95
REMARK   36  A    between atoms: _94  and  _97
REMARK   37  A    between atoms: _97  and  _98
REMARK   38  A    between atoms: _98  and  _99
REMARK   39  A    between atoms: _102  and  _104
REMARK   40  A    between atoms: _104  and  _105
REMARK   41  A    between atoms: _104  and  _107
REMARK   42  A    between atoms: _107  and  _108
REMARK   43  A    between atoms: _114  and  _116
REMARK   44  A    between atoms: _116  and  _117
REMARK   45  A    between atoms: _119  and  _121
REMARK   46  A    between atoms: _121  and  _122
REMARK   47  A    between atoms: _124  and  _126
REMARK   48  A    between atoms: _126  and  _127
REMARK   49  A    between atoms: _130  and  _132
REMARK   50  A    between atoms: _132  and  _133
REMARK   51  A    between atoms: _132  and  _135
REMARK   52  A    between atoms: _135  and  _136
REMARK   53  A    between atoms: _136  and  _137
REMARK   54  A    between atoms: _137  and  _138
REMARK   55  A    between atoms: _138  and  _139
REMARK   56  A    between atoms: _143  and  _145
REMARK   57  A    between atoms: _145  and  _146
REMARK   58  A    between atoms: _145  and  _148
REMARK   59  A    between atoms: _148  and  _149
REMARK   60  A    between atoms: _149  and  _150
REMARK   61  A    between atoms: _152  and  _154
REMARK   62  A    between atoms: _154  and  _155
REMARK   63  A    between atoms: _154  and  _157
REMARK   64  A    between atoms: _157  and  _158
REMARK   65  A    between atoms: _163  and  _164
REMARK   66  A    between atoms: _166  and  _168
REMARK   67  A    between atoms: _168  and  _169
REMARK   68  A    between atoms: _168  and  _171
REMARK   69  A    between atoms: _171  and  _172
REMARK   70  A    between atoms: _175  and  _177
REMARK   71  A    between atoms: _177  and  _178
REMARK   72  A    between atoms: _177  and  _180
REMARK   73  A    between atoms: _180  and  _181
REMARK   74  A    between atoms: _187  and  _189
REMARK   75  A    between atoms: _189  and  _190
REMARK   76  A    between atoms: _189  and  _192
REMARK   77  A    between atoms: _192  and  _193
REMARK   78  A    between atoms: _198  and  _199
REMARK   79  A    between atoms: _201  and  _203
REMARK   80  A    between atoms: _203  and  _204
REMARK   81  A    between atoms: _206  and  _208
REMARK   82  A    between atoms: _208  and  _209
REMARK   83  A    between atoms: _211  and  _213
REMARK   84  A    between atoms: _213  and  _214
REMARK   85  A    between atoms: _213  and  _216
REMARK   86  A    between atoms: _216  and  _217
REMARK   87  A    between atoms: _227  and  _229
REMARK   88  A    between atoms: _229  and  _230
REMARK   89  A    between atoms: _229  and  _232
REMARK   90  A    between atoms: _232  and  _233
REMARK   91  A    between atoms: _238  and  _240
REMARK   92  A    between atoms: _240  and  _241
REMARK   93  A    between atoms: _240  and  _243
REMARK   94  A    between atoms: _243  and  _244
REMARK   95  A    between atoms: _249  and  _250
REMARK   96  A    between atoms: _252  and  _254
REMARK   97  A    between atoms: _254  and  _255
REMARK   98  A    between atoms: _254  and  _257
REMARK   99  A    between atoms: _257  and  _258
REMARK  100  A    between atoms: _263  and  _264
REMARK  101  A    between atoms: _266  and  _268
REMARK  102  A    between atoms: _268  and  _269
REMARK  103  A    between atoms: _268  and  _271
REMARK  104  A    between atoms: _271  and  _272
REMARK  105  A    between atoms: _272  and  _273
REMARK  106  A    between atoms: _273  and  _274
REMARK  107  A    between atoms: _283  and  _285
REMARK  108  A    between atoms: _285  and  _286
REMARK  109  A    between atoms: _285  and  _288
REMARK  110  A    between atoms: _288  and  _289
REMARK  111  A    between atoms: _289  and  _290
REMARK  112  A    between atoms: _290  and  _291
REMARK  113  A    between atoms: _291  and  _292
REMARK  114  A    between atoms: _296  and  _298
REMARK  115  A    between atoms: _298  and  _299
REMARK  116  A    between atoms: _298  and  _301
REMARK  117  A    between atoms: _301  and  _302
REMARK  118  A    between atoms: _302  and  _303
REMARK  119  A    between atoms: _306  and  _308
REMARK  120  A    between atoms: _308  and  _309
REMARK  121  A    between atoms: _308  and  _311
REMARK  122  A    between atoms: _314  and  _316
REMARK  123  A    between atoms: _316  and  _317
REMARK  124  A    between atoms: _316  and  _319
REMARK  125  A    between atoms: _319  and  _320
REMARK  126  A    between atoms: _330  and  _332
REMARK  127  A    between atoms: _332  and  _333
REMARK  128  A    between atoms: _332  and  _335
REMARK  129  A    between atoms: _335  and  _336
REMARK  130  A    between atoms: _336  and  _337
REMARK                            x       y       z     vdW  Elec       q    Type
REMARK                         _______ _______ _______ _____ _____    ______ ____
ROOT
ATOM      1  O   HOH     1      19.045 -12.279  30.015  0.00  0.00    +0.000 OA
ENDROOT
TORSDOF 0
REMARK  Name = ../refined-set-2016/3arw/3arw_pocket.pdb
REMARK  130 active torsions:
REMARK  status: ('A' for Active; 'I' for Inactive)
REMARK    1  A    between atoms: _1  and  _3
REMARK    2  A    between atoms: _3  and  _4
REMARK    3  A    between atoms: _3  and  _6
REMARK    4  A    between atoms: _6  and  _7
REMARK    5  A    between atoms: _17  and  _19
REMARK    6  A    between atoms: _19  and  _20
REMARK    7  A    between atoms: _19  and  _22
REMARK    8  A    between atoms: _22  and  _23
REMARK    9  A    between atoms: _29  and  _31
REMARK   10  A    between atoms: _31  and  _32
REMARK   11  A    between atoms: _31  and  _34
REMARK   12  A    between atoms: _34  and  _35
REMARK   13  A    between atoms: _37  and  _39
REMARK   14  A    between atoms: _39  and  _40
REMARK   15  A    between atoms: _39  and  _42
REMARK   16  A    between atoms: _42  and  _43
REMARK   17  A    between atoms: _45  and  _47
REMARK   18  A    between atoms: _47  and  _48
REMARK   19  A    between atoms: _47  and  _50
REMARK   20  A    between atoms: _53  and  _55
REMARK   21  A    between atoms: _55  and  _56
REMARK   22  A    between atoms: _58  and  _60
REMARK   23  A    between atoms: _60  and  _61
REMARK   24  A    between atoms: _60  and  _63
REMARK   25  A    between atoms: _63  and  _64
REMARK   26  A    between atoms: _74  and  _76
REMARK   27  A    between atoms: _76  and  _77
REMARK   28  A    between atoms: _76  and  _79
REMARK   29  A    between atoms: _79  and  _80
REMARK   30  A    between atoms: _83  and  _85
REMARK   31  A    between atoms: _85  and  _86
REMARK   32  A    between atoms: _85  and  _88
REMARK   33  A    between atoms: _88  and  _89
REMARK   34  A    between atoms: _92  and  _94
REMARK   35  A    between atoms: _94  and  _95
REMARK   36  A    between atoms: _94  and  _97
REMARK   37  A    between atoms: _97  and  _98
REMARK   38  A    between atoms: _98  and  _99
REMARK   39  A    between atoms: _102  and  _104
REMARK   40  A    between atoms: _104  and  _105
REMARK   41  A    between atoms: _104  and  _107
REMARK   42  A    between atoms: _107  and  _108
REMARK   43  A    between atoms: _114  and  _116
REMARK   44  A    between atoms: _116  and  _117
REMARK   45  A    between atoms: _119  and  _121
REMARK   46  A    between atoms: _121  and  _122
REMARK   47  A    between atoms: _124  and  _126
REMARK   48  A    between atoms: _126  and  _127
REMARK   49  A    between atoms: _130  and  _132
REMARK   50  A    between atoms: _132  and  _133
REMARK   51  A    between atoms: _132  and  _135
REMARK   52  A    between atoms: _135  and  _136
REMARK   53  A    between atoms: _136  and  _137
REMARK   54  A    between atoms: _137  and  _138
REMARK   55  A    between atoms: _138  and  _139
REMARK   56  A    between atoms: _143  and  _145
REMARK   57  A    between atoms: _145  and  _146
REMARK   58  A    between atoms: _145  and  _148
REMARK   59  A    between atoms: _148  and  _149
REMARK   60  A    between atoms: _149  and  _150
REMARK   61  A    between atoms: _152  and  _154
REMARK   62  A    between atoms: _154  and  _155
REMARK   63  A    between atoms: _154  and  _157
REMARK   64  A    between atoms: _157  and  _158
REMARK   65  A    between atoms: _163  and  _164
REMARK   66  A    between atoms: _166  and  _168
REMARK   67  A    between atoms: _168  and  _169
REMARK   68  A    between atoms: _168  and  _171
REMARK   69  A    between atoms: _171  and  _172
REMARK   70  A    between atoms: _175  and  _177
REMARK   71  A    between atoms: _177  and  _178
REMARK   72  A    between atoms: _177  and  _180
REMARK   73  A    between atoms: _180  and  _181
REMARK   74  A    between atoms: _187  and  _189
REMARK   75  A    between atoms: _189  and  _190
REMARK   76  A    between atoms: _189  and  _192
REMARK   77  A    between atoms: _192  and  _193
REMARK   78  A    between atoms: _198  and  _199
REMARK   79  A    between atoms: _201  and  _203
REMARK   80  A    between atoms: _203  and  _204
REMARK   81  A    between atoms: _206  and  _208
REMARK   82  A    between atoms: _208  and  _209
REMARK   83  A    between atoms: _211  and  _213
REMARK   84  A    between atoms: _213  and  _214
REMARK   85  A    between atoms: _213  and  _216
REMARK   86  A    between atoms: _216  and  _217
REMARK   87  A    between atoms: _227  and  _229
REMARK   88  A    between atoms: _229  and  _230
REMARK   89  A    between atoms: _229  and  _232
REMARK   90  A    between atoms: _232  and  _233
REMARK   91  A    between atoms: _238  and  _240
REMARK   92  A    between atoms: _240  and  _241
REMARK   93  A    between atoms: _240  and  _243
REMARK   94  A    between atoms: _243  and  _244
REMARK   95  A    between atoms: _249  and  _250
REMARK   96  A    between atoms: _252  and  _254
REMARK   97  A    between atoms: _254  and  _255
REMARK   98  A    between atoms: _254  and  _257
REMARK   99  A    between atoms: _257  and  _258
REMARK  100  A    between atoms: _263  and  _264
REMARK  101  A    between atoms: _266  and  _268
REMARK  102  A    between atoms: _268  and  _269
REMARK  103  A    between atoms: _268  and  _271
REMARK  104  A    between atoms: _271  and  _272
REMARK  105  A    between atoms: _272  and  _273
REMARK  106  A    between atoms: _273  and  _274
REMARK  107  A    between atoms: _283  and  _285
REMARK  108  A    between atoms: _285  and  _286
REMARK  109  A    between atoms: _285  and  _288
REMARK  110  A    between atoms: _288  and  _289
REMARK  111  A    between atoms: _289  and  _290
REMARK  112  A    between atoms: _290  and  _291
REMARK  113  A    between atoms: _291  and  _292
REMARK  114  A    between atoms: _296  and  _298
REMARK  115  A    between atoms: _298  and  _299
REMARK  116  A    between atoms: _298  and  _301
REMARK  117  A    between atoms: _301  and  _302
REMARK  118  A    between atoms: _302  and  _303
REMARK  119  A    between atoms: _306  and  _308
REMARK  120  A    between atoms: _308  and  _309
REMARK  121  A    between atoms: _308  and  _311
REMARK  122  A    between atoms: _314  and  _316
REMARK  123  A    between atoms: _316  and  _317
REMARK  124  A    between atoms: _316  and  _319
REMARK  125  A    between atoms: _319  and  _320
REMARK  126  A    between atoms: _330  and  _332
REMARK  127  A    between atoms: _332  and  _333
REMARK  128  A    between atoms: _332  and  _335
REMARK  129  A    between atoms: _335  and  _336
REMARK  130  A    between atoms: _336  and  _337
REMARK                            x       y       z     vdW  Elec       q    Type
REMARK                         _______ _______ _______ _____ _____    ______ ____
ROOT
ATOM      1  O   HOH     1      18.430 -11.628  16.512  0.00  0.00    +0.000 OA
ENDROOT
TORSDOF 0
REMARK  Name = ../refined-set-2016/3arw/3arw_pocket.pdb
REMARK  130 active torsions:
REMARK  status: ('A' for Active; 'I' for Inactive)
REMARK    1  A    between atoms: _1  and  _3
REMARK    2  A    between atoms: _3  and  _4
REMARK    3  A    between atoms: _3  and  _6
REMARK    4  A    between atoms: _6  and  _7
REMARK    5  A    between atoms: _17  and  _19
REMARK    6  A    between atoms: _19  and  _20
REMARK    7  A    between atoms: _19  and  _22
REMARK    8  A    between atoms: _22  and  _23
REMARK    9  A    between atoms: _29  and  _31
REMARK   10  A    between atoms: _31  and  _32
REMARK   11  A    between atoms: _31  and  _34
REMARK   12  A    between atoms: _34  and  _35
REMARK   13  A    between atoms: _37  and  _39
REMARK   14  A    between atoms: _39  and  _40
REMARK   15  A    between atoms: _39  and  _42
REMARK   16  A    between atoms: _42  and  _43
REMARK   17  A    between atoms: _45  and  _47
REMARK   18  A    between atoms: _47  and  _48
REMARK   19  A    between atoms: _47  and  _50
REMARK   20  A    between atoms: _53  and  _55
REMARK   21  A    between atoms: _55  and  _56
REMARK   22  A    between atoms: _58  and  _60
REMARK   23  A    between atoms: _60  and  _61
REMARK   24  A    between atoms: _60  and  _63
REMARK   25  A    between atoms: _63  and  _64
REMARK   26  A    between atoms: _74  and  _76
REMARK   27  A    between atoms: _76  and  _77
REMARK   28  A    between atoms: _76  and  _79
REMARK   29  A    between atoms: _79  and  _80
REMARK   30  A    between atoms: _83  and  _85
REMARK   31  A    between atoms: _85  and  _86
REMARK   32  A    between atoms: _85  and  _88
REMARK   33  A    between atoms: _88  and  _89
REMARK   34  A    between atoms: _92  and  _94
REMARK   35  A    between atoms: _94  and  _95
REMARK   36  A    between atoms: _94  and  _97
REMARK   37  A    between atoms: _97  and  _98
REMARK   38  A    between atoms: _98  and  _99
REMARK   39  A    between atoms: _102  and  _104
REMARK   40  A    between atoms: _104  and  _105
REMARK   41  A    between atoms: _104  and  _107
REMARK   42  A    between atoms: _107  and  _108
REMARK   43  A    between atoms: _114  and  _116
REMARK   44  A    between atoms: _116  and  _117
REMARK   45  A    between atoms: _119  and  _121
REMARK   46  A    between atoms: _121  and  _122
REMARK   47  A    between atoms: _124  and  _126
REMARK   48  A    between atoms: _126  and  _127
REMARK   49  A    between atoms: _130  and  _132
REMARK   50  A    between atoms: _132  and  _133
REMARK   51  A    between atoms: _132  and  _135
REMARK   52  A    between atoms: _135  and  _136
REMARK   53  A    between atoms: _136  and  _137
REMARK   54  A    between atoms: _137  and  _138
REMARK   55  A    between atoms: _138  and  _139
REMARK   56  A    between atoms: _143  and  _145
REMARK   57  A    between atoms: _145  and  _146
REMARK   58  A    between atoms: _145  and  _148
REMARK   59  A    between atoms: _148  and  _149
REMARK   60  A    between atoms: _149  and  _150
REMARK   61  A    between atoms: _152  and  _154
REMARK   62  A    between atoms: _154  and  _155
REMARK   63  A    between atoms: _154  and  _157
REMARK   64  A    between atoms: _157  and  _158
REMARK   65  A    between atoms: _163  and  _164
REMARK   66  A    between atoms: _166  and  _168
REMARK   67  A    between atoms: _168  and  _169
REMARK   68  A    between atoms: _168  and  _171
REMARK   69  A    between atoms: _171  and  _172
REMARK   70  A    between atoms: _175  and  _177
REMARK   71  A    between atoms: _177  and  _178
REMARK   72  A    between atoms: _177  and  _180
REMARK   73  A    between atoms: _180  and  _181
REMARK   74  A    between atoms: _187  and  _189
REMARK   75  A    between atoms: _189  and  _190
REMARK   76  A    between atoms: _189  and  _192
REMARK   77  A    between atoms: _192  and  _193
REMARK   78  A    between atoms: _198  and  _199
REMARK   79  A    between atoms: _201  and  _203
REMARK   80  A    between atoms: _203  and  _204
REMARK   81  A    between atoms: _206  and  _208
REMARK   82  A    between atoms: _208  and  _209
REMARK   83  A    between atoms: _211  and  _213
REMARK   84  A    between atoms: _213  and  _214
REMARK   85  A    between atoms: _213  and  _216
REMARK   86  A    between atoms: _216  and  _217
REMARK   87  A    between atoms: _227  and  _229
REMARK   88  A    between atoms: _229  and  _230
REMARK   89  A    between atoms: _229  and  _232
REMARK   90  A    between atoms: _232  and  _233
REMARK   91  A    between atoms: _238  and  _240
REMARK   92  A    between atoms: _240  and  _241
REMARK   93  A    between atoms: _240  and  _243
REMARK   94  A    between atoms: _243  and  _244
REMARK   95  A    between atoms: _249  and  _250
REMARK   96  A    between atoms: _252  and  _254
REMARK   97  A    between atoms: _254  and  _255
REMARK   98  A    between atoms: _254  and  _257
REMARK   99  A    between atoms: _257  and  _258
REMARK  100  A    between atoms: _263  and  _264
REMARK  101  A    between atoms: _266  and  _268
REMARK  102  A    between atoms: _268  and  _269
REMARK  103  A    between atoms: _268  and  _271
REMARK  104  A    between atoms: _271  and  _272
REMARK  105  A    between atoms: _272  and  _273
REMARK  106  A    between atoms: _273  and  _274
REMARK  107  A    between atoms: _283  and  _285
REMARK  108  A    between atoms: _285  and  _286
REMARK  109  A    between atoms: _285  and  _288
REMARK  110  A    between atoms: _288  and  _289
REMARK  111  A    between atoms: _289  and  _290
REMARK  112  A    between atoms: _290  and  _291
REMARK  113  A    between atoms: _291  and  _292
REMARK  114  A    between atoms: _296  and  _298
REMARK  115  A    between atoms: _298  and  _299
REMARK  116  A    between atoms: _298  and  _301
REMARK  117  A    between atoms: _301  and  _302
REMARK  118  A    between atoms: _302  and  _303
REMARK  119  A    between atoms: _306  and  _308
REMARK  120  A    between atoms: _308  and  _309
REMARK  121  A    between atoms: _308  and  _311
REMARK  122  A    between atoms: _314  and  _316
REMARK  123  A    between atoms: _316  and  _317
REMARK  124  A    between atoms: _316  and  _319
REMARK  125  A    between atoms: _319  and  _320
REMARK  126  A    between atoms: _330  and  _332
REMARK  127  A    between atoms: _332  and  _333
REMARK  128  A    between atoms: _332  and  _335
REMARK  129  A    between atoms: _335  and  _336
REMARK  130  A    between atoms: _336  and  _337
REMARK                            x       y       z     vdW  Elec       q    Type
REMARK                         _______ _______ _______ _____ _____    ______ ____
ROOT
ATOM      1  O   HOH     1      12.410  -0.636  24.863  0.00  0.00    +0.000 OA
ENDROOT
TORSDOF 0
REMARK  Name = ../refined-set-2016/3arw/3arw_pocket.pdb
REMARK  130 active torsions:
REMARK  status: ('A' for Active; 'I' for Inactive)
REMARK    1  A    between atoms: _1  and  _3
REMARK    2  A    between atoms: _3  and  _4
REMARK    3  A    between atoms: _3  and  _6
REMARK    4  A    between atoms: _6  and  _7
REMARK    5  A    between atoms: _17  and  _19
REMARK    6  A    between atoms: _19  and  _20
REMARK    7  A    between atoms: _19  and  _22
REMARK    8  A    between atoms: _22  and  _23
REMARK    9  A    between atoms: _29  and  _31
REMARK   10  A    between atoms: _31  and  _32
REMARK   11  A    between atoms: _31  and  _34
REMARK   12  A    between atoms: _34  and  _35
REMARK   13  A    between atoms: _37  and  _39
REMARK   14  A    between atoms: _39  and  _40
REMARK   15  A    between atoms: _39  and  _42
REMARK   16  A    between atoms: _42  and  _43
REMARK   17  A    between atoms: _45  and  _47
REMARK   18  A    between atoms: _47  and  _48
REMARK   19  A    between atoms: _47  and  _50
REMARK   20  A    between atoms: _53  and  _55
REMARK   21  A    between atoms: _55  and  _56
REMARK   22  A    between atoms: _58  and  _60
REMARK   23  A    between atoms: _60  and  _61
REMARK   24  A    between atoms: _60  and  _63
REMARK   25  A    between atoms: _63  and  _64
REMARK   26  A    between atoms: _74  and  _76
REMARK   27  A    between atoms: _76  and  _77
REMARK   28  A    between atoms: _76  and  _79
REMARK   29  A    between atoms: _79  and  _80
REMARK   30  A    between atoms: _83  and  _85
REMARK   31  A    between atoms: _85  and  _86
REMARK   32  A    between atoms: _85  and  _88
REMARK   33  A    between atoms: _88  and  _89
REMARK   34  A    between atoms: _92  and  _94
REMARK   35  A    between atoms: _94  and  _95
REMARK   36  A    between atoms: _94  and  _97
REMARK   37  A    between atoms: _97  and  _98
REMARK   38  A    between atoms: _98  and  _99
REMARK   39  A    between atoms: _102  and  _104
REMARK   40  A    between atoms: _104  and  _105
REMARK   41  A    between atoms: _104  and  _107
REMARK   42  A    between atoms: _107  and  _108
REMARK   43  A    between atoms: _114  and  _116
REMARK   44  A    between atoms: _116  and  _117
REMARK   45  A    between atoms: _119  and  _121
REMARK   46  A    between atoms: _121  and  _122
REMARK   47  A    between atoms: _124  and  _126
REMARK   48  A    between atoms: _126  and  _127
REMARK   49  A    between atoms: _130  and  _132
REMARK   50  A    between atoms: _132  and  _133
REMARK   51  A    between atoms: _132  and  _135
REMARK   52  A    between atoms: _135  and  _136
REMARK   53  A    between atoms: _136  and  _137
REMARK   54  A    between atoms: _137  and  _138
REMARK   55  A    between atoms: _138  and  _139
REMARK   56  A    between atoms: _143  and  _145
REMARK   57  A    between atoms: _145  and  _146
REMARK   58  A    between atoms: _145  and  _148
REMARK   59  A    between atoms: _148  and  _149
REMARK   60  A    between atoms: _149  and  _150
REMARK   61  A    between atoms: _152  and  _154
REMARK   62  A    between atoms: _154  and  _155
REMARK   63  A    between atoms: _154  and  _157
REMARK   64  A    between atoms: _157  and  _158
REMARK   65  A    between atoms: _163  and  _164
REMARK   66  A    between atoms: _166  and  _168
REMARK   67  A    between atoms: _168  and  _169
REMARK   68  A    between atoms: _168  and  _171
REMARK   69  A    between atoms: _171  and  _172
REMARK   70  A    between atoms: _175  and  _177
REMARK   71  A    between atoms: _177  and  _178
REMARK   72  A    between atoms: _177  and  _180
REMARK   73  A    between atoms: _180  and  _181
REMARK   74  A    between atoms: _187  and  _189
REMARK   75  A    between atoms: _189  and  _190
REMARK   76  A    between atoms: _189  and  _192
REMARK   77  A    between atoms: _192  and  _193
REMARK   78  A    between atoms: _198  and  _199
REMARK   79  A    between atoms: _201  and  _203
REMARK   80  A    between atoms: _203  and  _204
REMARK   81  A    between atoms: _206  and  _208
REMARK   82  A    between atoms: _208  and  _209
REMARK   83  A    between atoms: _211  and  _213
REMARK   84  A    between atoms: _213  and  _214
REMARK   85  A    between atoms: _213  and  _216
REMARK   86  A    between atoms: _216  and  _217
REMARK   87  A    between atoms: _227  and  _229
REMARK   88  A    between atoms: _229  and  _230
REMARK   89  A    between atoms: _229  and  _232
REMARK   90  A    between atoms: _232  and  _233
REMARK   91  A    between atoms: _238  and  _240
REMARK   92  A    between atoms: _240  and  _241
REMARK   93  A    between atoms: _240  and  _243
REMARK   94  A    between atoms: _243  and  _244
REMARK   95  A    between atoms: _249  and  _250
REMARK   96  A    between atoms: _252  and  _254
REMARK   97  A    between atoms: _254  and  _255
REMARK   98  A    between atoms: _254  and  _257
REMARK   99  A    between atoms: _257  and  _258
REMARK  100  A    between atoms: _263  and  _264
REMARK  101  A    between atoms: _266  and  _268
REMARK  102  A    between atoms: _268  and  _269
REMARK  103  A    between atoms: _268  and  _271
REMARK  104  A    between atoms: _271  and  _272
REMARK  105  A    between atoms: _272  and  _273
REMARK  106  A    between atoms: _273  and  _274
REMARK  107  A    between atoms: _283  and  _285
REMARK  108  A    between atoms: _285  and  _286
REMARK  109  A    between atoms: _285  and  _288
REMARK  110  A    between atoms: _288  and  _289
REMARK  111  A    between atoms: _289  and  _290
REMARK  112  A    between atoms: _290  and  _291
REMARK  113  A    between atoms: _291  and  _292
REMARK  114  A    between atoms: _296  and  _298
REMARK  115  A    between atoms: _298  and  _299
REMARK  116  A    between atoms: _298  and  _301
REMARK  117  A    between atoms: _301  and  _302
REMARK  118  A    between atoms: _302  and  _303
REMARK  119  A    between atoms: _306  and  _308
REMARK  120  A    between atoms: _308  and  _309
REMARK  121  A    between atoms: _308  and  _311
REMARK  122  A    between atoms: _314  and  _316
REMARK  123  A    between atoms: _316  and  _317
REMARK  124  A    between atoms: _316  and  _319
REMARK  125  A    between atoms: _319  and  _320
REMARK  126  A    between atoms: _330  and  _332
REMARK  127  A    between atoms: _332  and  _333
REMARK  128  A    between atoms: _332  and  _335
REMARK  129  A    between atoms: _335  and  _336
REMARK  130  A    between atoms: _336  and  _337
REMARK                            x       y       z     vdW  Elec       q    Type
REMARK                         _______ _______ _______ _____ _____    ______ ____
ROOT
ATOM      1  O   HOH     1      20.552  -5.192  23.587  0.00  0.00    +0.000 OA
ENDROOT
TORSDOF 0
REMARK  Name = ../refined-set-2016/3arw/3arw_pocket.pdb
REMARK  130 active torsions:
REMARK  status: ('A' for Active; 'I' for Inactive)
REMARK    1  A    between atoms: _1  and  _3
REMARK    2  A    between atoms: _3  and  _4
REMARK    3  A    between atoms: _3  and  _6
REMARK    4  A    between atoms: _6  and  _7
REMARK    5  A    between atoms: _17  and  _19
REMARK    6  A    between atoms: _19  and  _20
REMARK    7  A    between atoms: _19  and  _22
REMARK    8  A    between atoms: _22  and  _23
REMARK    9  A    between atoms: _29  and  _31
REMARK   10  A    between atoms: _31  and  _32
REMARK   11  A    between atoms: _31  and  _34
REMARK   12  A    between atoms: _34  and  _35
REMARK   13  A    between atoms: _37  and  _39
REMARK   14  A    between atoms: _39  and  _40
REMARK   15  A    between atoms: _39  and  _42
REMARK   16  A    between atoms: _42  and  _43
REMARK   17  A    between atoms: _45  and  _47
REMARK   18  A    between atoms: _47  and  _48
REMARK   19  A    between atoms: _47  and  _50
REMARK   20  A    between atoms: _53  and  _55
REMARK   21  A    between atoms: _55  and  _56
REMARK   22  A    between atoms: _58  and  _60
REMARK   23  A    between atoms: _60  and  _61
REMARK   24  A    between atoms: _60  and  _63
REMARK   25  A    between atoms: _63  and  _64
REMARK   26  A    between atoms: _74  and  _76
REMARK   27  A    between atoms: _76  and  _77
REMARK   28  A    between atoms: _76  and  _79
REMARK   29  A    between atoms: _79  and  _80
REMARK   30  A    between atoms: _83  and  _85
REMARK   31  A    between atoms: _85  and  _86
REMARK   32  A    between atoms: _85  and  _88
REMARK   33  A    between atoms: _88  and  _89
REMARK   34  A    between atoms: _92  and  _94
REMARK   35  A    between atoms: _94  and  _95
REMARK   36  A    between atoms: _94  and  _97
REMARK   37  A    between atoms: _97  and  _98
REMARK   38  A    between atoms: _98  and  _99
REMARK   39  A    between atoms: _102  and  _104
REMARK   40  A    between atoms: _104  and  _105
REMARK   41  A    between atoms: _104  and  _107
REMARK   42  A    between atoms: _107  and  _108
REMARK   43  A    between atoms: _114  and  _116
REMARK   44  A    between atoms: _116  and  _117
REMARK   45  A    between atoms: _119  and  _121
REMARK   46  A    between atoms: _121  and  _122
REMARK   47  A    between atoms: _124  and  _126
REMARK   48  A    between atoms: _126  and  _127
REMARK   49  A    between atoms: _130  and  _132
REMARK   50  A    between atoms: _132  and  _133
REMARK   51  A    between atoms: _132  and  _135
REMARK   52  A    between atoms: _135  and  _136
REMARK   53  A    between atoms: _136  and  _137
REMARK   54  A    between atoms: _137  and  _138
REMARK   55  A    between atoms: _138  and  _139
REMARK   56  A    between atoms: _143  and  _145
REMARK   57  A    between atoms: _145  and  _146
REMARK   58  A    between atoms: _145  and  _148
REMARK   59  A    between atoms: _148  and  _149
REMARK   60  A    between atoms: _149  and  _150
REMARK   61  A    between atoms: _152  and  _154
REMARK   62  A    between atoms: _154  and  _155
REMARK   63  A    between atoms: _154  and  _157
REMARK   64  A    between atoms: _157  and  _158
REMARK   65  A    between atoms: _163  and  _164
REMARK   66  A    between atoms: _166  and  _168
REMARK   67  A    between atoms: _168  and  _169
REMARK   68  A    between atoms: _168  and  _171
REMARK   69  A    between atoms: _171  and  _172
REMARK   70  A    between atoms: _175  and  _177
REMARK   71  A    between atoms: _177  and  _178
REMARK   72  A    between atoms: _177  and  _180
REMARK   73  A    between atoms: _180  and  _181
REMARK   74  A    between atoms: _187  and  _189
REMARK   75  A    between atoms: _189  and  _190
REMARK   76  A    between atoms: _189  and  _192
REMARK   77  A    between atoms: _192  and  _193
REMARK   78  A    between atoms: _198  and  _199
REMARK   79  A    between atoms: _201  and  _203
REMARK   80  A    between atoms: _203  and  _204
REMARK   81  A    between atoms: _206  and  _208
REMARK   82  A    between atoms: _208  and  _209
REMARK   83  A    between atoms: _211  and  _213
REMARK   84  A    between atoms: _213  and  _214
REMARK   85  A    between atoms: _213  and  _216
REMARK   86  A    between atoms: _216  and  _217
REMARK   87  A    between atoms: _227  and  _229
REMARK   88  A    between atoms: _229  and  _230
REMARK   89  A    between atoms: _229  and  _232
REMARK   90  A    between atoms: _232  and  _233
REMARK   91  A    between atoms: _238  and  _240
REMARK   92  A    between atoms: _240  and  _241
REMARK   93  A    between atoms: _240  and  _243
REMARK   94  A    between atoms: _243  and  _244
REMARK   95  A    between atoms: _249  and  _250
REMARK   96  A    between atoms: _252  and  _254
REMARK   97  A    between atoms: _254  and  _255
REMARK   98  A    between atoms: _254  and  _257
REMARK   99  A    between atoms: _257  and  _258
REMARK  100  A    between atoms: _263  and  _264
REMARK  101  A    between atoms: _266  and  _268
REMARK  102  A    between atoms: _268  and  _269
REMARK  103  A    between atoms: _268  and  _271
REMARK  104  A    between atoms: _271  and  _272
REMARK  105  A    between atoms: _272  and  _273
REMARK  106  A    between atoms: _273  and  _274
REMARK  107  A    between atoms: _283  and  _285
REMARK  108  A    between atoms: _285  and  _286
REMARK  109  A    between atoms: _285  and  _288
REMARK  110  A    between atoms: _288  and  _289
REMARK  111  A    between atoms: _289  and  _290
REMARK  112  A    between atoms: _290  and  _291
REMARK  113  A    between atoms: _291  and  _292
REMARK  114  A    between atoms: _296  and  _298
REMARK  115  A    between atoms: _298  and  _299
REMARK  116  A    between atoms: _298  and  _301
REMARK  117  A    between atoms: _301  and  _302
REMARK  118  A    between atoms: _302  and  _303
REMARK  119  A    between atoms: _306  and  _308
REMARK  120  A    between atoms: _308  and  _309
REMARK  121  A    between atoms: _308  and  _311
REMARK  122  A    between atoms: _314  and  _316
REMARK  123  A    between atoms: _316  and  _317
REMARK  124  A    between atoms: _316  and  _319
REMARK  125  A    between atoms: _319  and  _320
REMARK  126  A    between atoms: _330  and  _332
REMARK  127  A    between atoms: _332  and  _333
REMARK  128  A    between atoms: _332  and  _335
REMARK  129  A    between atoms: _335  and  _336
REMARK  130  A    between atoms: _336  and  _337
REMARK                            x       y       z     vdW  Elec       q    Type
REMARK                         _______ _______ _______ _____ _____    ______ ____
ROOT
ATOM      1  O   HOH     1      10.081  -8.864  21.534  0.00  0.00    +0.000 OA
ENDROOT
TORSDOF 0
REMARK  Name = ../refined-set-2016/3arw/3arw_pocket.pdb
REMARK  130 active torsions:
REMARK  status: ('A' for Active; 'I' for Inactive)
REMARK    1  A    between atoms: _1  and  _3
REMARK    2  A    between atoms: _3  and  _4
REMARK    3  A    between atoms: _3  and  _6
REMARK    4  A    between atoms: _6  and  _7
REMARK    5  A    between atoms: _17  and  _19
REMARK    6  A    between atoms: _19  and  _20
REMARK    7  A    between atoms: _19  and  _22
REMARK    8  A    between atoms: _22  and  _23
REMARK    9  A    between atoms: _29  and  _31
REMARK   10  A    between atoms: _31  and  _32
REMARK   11  A    between atoms: _31  and  _34
REMARK   12  A    between atoms: _34  and  _35
REMARK   13  A    between atoms: _37  and  _39
REMARK   14  A    between atoms: _39  and  _40
REMARK   15  A    between atoms: _39  and  _42
REMARK   16  A    between atoms: _42  and  _43
REMARK   17  A    between atoms: _45  and  _47
REMARK   18  A    between atoms: _47  and  _48
REMARK   19  A    between atoms: _47  and  _50
REMARK   20  A    between atoms: _53  and  _55
REMARK   21  A    between atoms: _55  and  _56
REMARK   22  A    between atoms: _58  and  _60
REMARK   23  A    between atoms: _60  and  _61
REMARK   24  A    between atoms: _60  and  _63
REMARK   25  A    between atoms: _63  and  _64
REMARK   26  A    between atoms: _74  and  _76
REMARK   27  A    between atoms: _76  and  _77
REMARK   28  A    between atoms: _76  and  _79
REMARK   29  A    between atoms: _79  and  _80
REMARK   30  A    between atoms: _83  and  _85
REMARK   31  A    between atoms: _85  and  _86
REMARK   32  A    between atoms: _85  and  _88
REMARK   33  A    between atoms: _88  and  _89
REMARK   34  A    between atoms: _92  and  _94
REMARK   35  A    between atoms: _94  and  _95
REMARK   36  A    between atoms: _94  and  _97
REMARK   37  A    between atoms: _97  and  _98
REMARK   38  A    between atoms: _98  and  _99
REMARK   39  A    between atoms: _102  and  _104
REMARK   40  A    between atoms: _104  and  _105
REMARK   41  A    between atoms: _104  and  _107
REMARK   42  A    between atoms: _107  and  _108
REMARK   43  A    between atoms: _114  and  _116
REMARK   44  A    between atoms: _116  and  _117
REMARK   45  A    between atoms: _119  and  _121
REMARK   46  A    between atoms: _121  and  _122
REMARK   47  A    between atoms: _124  and  _126
REMARK   48  A    between atoms: _126  and  _127
REMARK   49  A    between atoms: _130  and  _132
REMARK   50  A    between atoms: _132  and  _133
REMARK   51  A    between atoms: _132  and  _135
REMARK   52  A    between atoms: _135  and  _136
REMARK   53  A    between atoms: _136  and  _137
REMARK   54  A    between atoms: _137  and  _138
REMARK   55  A    between atoms: _138  and  _139
REMARK   56  A    between atoms: _143  and  _145
REMARK   57  A    between atoms: _145  and  _146
REMARK   58  A    between atoms: _145  and  _148
REMARK   59  A    between atoms: _148  and  _149
REMARK   60  A    between atoms: _149  and  _150
REMARK   61  A    between atoms: _152  and  _154
REMARK   62  A    between atoms: _154  and  _155
REMARK   63  A    between atoms: _154  and  _157
REMARK   64  A    between atoms: _157  and  _158
REMARK   65  A    between atoms: _163  and  _164
REMARK   66  A    between atoms: _166  and  _168
REMARK   67  A    between atoms: _168  and  _169
REMARK   68  A    between atoms: _168  and  _171
REMARK   69  A    between atoms: _171  and  _172
REMARK   70  A    between atoms: _175  and  _177
REMARK   71  A    between atoms: _177  and  _178
REMARK   72  A    between atoms: _177  and  _180
REMARK   73  A    between atoms: _180  and  _181
REMARK   74  A    between atoms: _187  and  _189
REMARK   75  A    between atoms: _189  and  _190
REMARK   76  A    between atoms: _189  and  _192
REMARK   77  A    between atoms: _192  and  _193
REMARK   78  A    between atoms: _198  and  _199
REMARK   79  A    between atoms: _201  and  _203
REMARK   80  A    between atoms: _203  and  _204
REMARK   81  A    between atoms: _206  and  _208
REMARK   82  A    between atoms: _208  and  _209
REMARK   83  A    between atoms: _211  and  _213
REMARK   84  A    between atoms: _213  and  _214
REMARK   85  A    between atoms: _213  and  _216
REMARK   86  A    between atoms: _216  and  _217
REMARK   87  A    between atoms: _227  and  _229
REMARK   88  A    between atoms: _229  and  _230
REMARK   89  A    between atoms: _229  and  _232
REMARK   90  A    between atoms: _232  and  _233
REMARK   91  A    between atoms: _238  and  _240
REMARK   92  A    between atoms: _240  and  _241
REMARK   93  A    between atoms: _240  and  _243
REMARK   94  A    between atoms: _243  and  _244
REMARK   95  A    between atoms: _249  and  _250
REMARK   96  A    between atoms: _252  and  _254
REMARK   97  A    between atoms: _254  and  _255
REMARK   98  A    between atoms: _254  and  _257
REMARK   99  A    between atoms: _257  and  _258
REMARK  100  A    between atoms: _263  and  _264
REMARK  101  A    between atoms: _266  and  _268
REMARK  102  A    between atoms: _268  and  _269
REMARK  103  A    between atoms: _268  and  _271
REMARK  104  A    between atoms: _271  and  _272
REMARK  105  A    between atoms: _272  and  _273
REMARK  106  A    between atoms: _273  and  _274
REMARK  107  A    between atoms: _283  and  _285
REMARK  108  A    between atoms: _285  and  _286
REMARK  109  A    between atoms: _285  and  _288
REMARK  110  A    between atoms: _288  and  _289
REMARK  111  A    between atoms: _289  and  _290
REMARK  112  A    between atoms: _290  and  _291
REMARK  113  A    between atoms: _291  and  _292
REMARK  114  A    between atoms: _296  and  _298
REMARK  115  A    between atoms: _298  and  _299
REMARK  116  A    between atoms: _298  and  _301
REMARK  117  A    between atoms: _301  and  _302
REMARK  118  A    between atoms: _302  and  _303
REMARK  119  A    between atoms: _306  and  _308
REMARK  120  A    between atoms: _308  and  _309
REMARK  121  A    between atoms: _308  and  _311
REMARK  122  A    between atoms: _314  and  _316
REMARK  123  A    between atoms: _316  and  _317
REMARK  124  A    between atoms: _316  and  _319
REMARK  125  A    between atoms: _319  and  _320
REMARK  126  A    between atoms: _330  and  _332
REMARK  127  A    between atoms: _332  and  _333
REMARK  128  A    between atoms: _332  and  _335
REMARK  129  A    between atoms: _335  and  _336
REMARK  130  A    between atoms: _336  and  _337
REMARK                            x       y       z     vdW  Elec       q    Type
REMARK                         _______ _______ _______ _____ _____    ______ ____
ROOT
ATOM      1  O   HOH     1      13.753  -3.844  28.852  0.00  0.00    +0.000 OA
ENDROOT
TORSDOF 0
REMARK  Name = ../refined-set-2016/3arw/3arw_pocket.pdb
REMARK  130 active torsions:
REMARK  status: ('A' for Active; 'I' for Inactive)
REMARK    1  A    between atoms: _1  and  _3
REMARK    2  A    between atoms: _3  and  _4
REMARK    3  A    between atoms: _3  and  _6
REMARK    4  A    between atoms: _6  and  _7
REMARK    5  A    between atoms: _17  and  _19
REMARK    6  A    between atoms: _19  and  _20
REMARK    7  A    between atoms: _19  and  _22
REMARK    8  A    between atoms: _22  and  _23
REMARK    9  A    between atoms: _29  and  _31
REMARK   10  A    between atoms: _31  and  _32
REMARK   11  A    between atoms: _31  and  _34
REMARK   12  A    between atoms: _34  and  _35
REMARK   13  A    between atoms: _37  and  _39
REMARK   14  A    between atoms: _39  and  _40
REMARK   15  A    between atoms: _39  and  _42
REMARK   16  A    between atoms: _42  and  _43
REMARK   17  A    between atoms: _45  and  _47
REMARK   18  A    between atoms: _47  and  _48
REMARK   19  A    between atoms: _47  and  _50
REMARK   20  A    between atoms: _53  and  _55
REMARK   21  A    between atoms: _55  and  _56
REMARK   22  A    between atoms: _58  and  _60
REMARK   23  A    between atoms: _60  and  _61
REMARK   24  A    between atoms: _60  and  _63
REMARK   25  A    between atoms: _63  and  _64
REMARK   26  A    between atoms: _74  and  _76
REMARK   27  A    between atoms: _76  and  _77
REMARK   28  A    between atoms: _76  and  _79
REMARK   29  A    between atoms: _79  and  _80
REMARK   30  A    between atoms: _83  and  _85
REMARK   31  A    between atoms: _85  and  _86
REMARK   32  A    between atoms: _85  and  _88
REMARK   33  A    between atoms: _88  and  _89
REMARK   34  A    between atoms: _92  and  _94
REMARK   35  A    between atoms: _94  and  _95
REMARK   36  A    between atoms: _94  and  _97
REMARK   37  A    between atoms: _97  and  _98
REMARK   38  A    between atoms: _98  and  _99
REMARK   39  A    between atoms: _102  and  _104
REMARK   40  A    between atoms: _104  and  _105
REMARK   41  A    between atoms: _104  and  _107
REMARK   42  A    between atoms: _107  and  _108
REMARK   43  A    between atoms: _114  and  _116
REMARK   44  A    between atoms: _116  and  _117
REMARK   45  A    between atoms: _119  and  _121
REMARK   46  A    between atoms: _121  and  _122
REMARK   47  A    between atoms: _124  and  _126
REMARK   48  A    between atoms: _126  and  _127
REMARK   49  A    between atoms: _130  and  _132
REMARK   50  A    between atoms: _132  and  _133
REMARK   51  A    between atoms: _132  and  _135
REMARK   52  A    between atoms: _135  and  _136
REMARK   53  A    between atoms: _136  and  _137
REMARK   54  A    between atoms: _137  and  _138
REMARK   55  A    between atoms: _138  and  _139
REMARK   56  A    between atoms: _143  and  _145
REMARK   57  A    between atoms: _145  and  _146
REMARK   58  A    between atoms: _145  and  _148
REMARK   59  A    between atoms: _148  and  _149
REMARK   60  A    between atoms: _149  and  _150
REMARK   61  A    between atoms: _152  and  _154
REMARK   62  A    between atoms: _154  and  _155
REMARK   63  A    between atoms: _154  and  _157
REMARK   64  A    between atoms: _157  and  _158
REMARK   65  A    between atoms: _163  and  _164
REMARK   66  A    between atoms: _166  and  _168
REMARK   67  A    between atoms: _168  and  _169
REMARK   68  A    between atoms: _168  and  _171
REMARK   69  A    between atoms: _171  and  _172
REMARK   70  A    between atoms: _175  and  _177
REMARK   71  A    between atoms: _177  and  _178
REMARK   72  A    between atoms: _177  and  _180
REMARK   73  A    between atoms: _180  and  _181
REMARK   74  A    between atoms: _187  and  _189
REMARK   75  A    between atoms: _189  and  _190
REMARK   76  A    between atoms: _189  and  _192
REMARK   77  A    between atoms: _192  and  _193
REMARK   78  A    between atoms: _198  and  _199
REMARK   79  A    between atoms: _201  and  _203
REMARK   80  A    between atoms: _203  and  _204
REMARK   81  A    between atoms: _206  and  _208
REMARK   82  A    between atoms: _208  and  _209
REMARK   83  A    between atoms: _211  and  _213
REMARK   84  A    between atoms: _213  and  _214
REMARK   85  A    between atoms: _213  and  _216
REMARK   86  A    between atoms: _216  and  _217
REMARK   87  A    between atoms: _227  and  _229
REMARK   88  A    between atoms: _229  and  _230
REMARK   89  A    between atoms: _229  and  _232
REMARK   90  A    between atoms: _232  and  _233
REMARK   91  A    between atoms: _238  and  _240
REMARK   92  A    between atoms: _240  and  _241
REMARK   93  A    between atoms: _240  and  _243
REMARK   94  A    between atoms: _243  and  _244
REMARK   95  A    between atoms: _249  and  _250
REMARK   96  A    between atoms: _252  and  _254
REMARK   97  A    between atoms: _254  and  _255
REMARK   98  A    between atoms: _254  and  _257
REMARK   99  A    between atoms: _257  and  _258
REMARK  100  A    between atoms: _263  and  _264
REMARK  101  A    between atoms: _266  and  _268
REMARK  102  A    between atoms: _268  and  _269
REMARK  103  A    between atoms: _268  and  _271
REMARK  104  A    between atoms: _271  and  _272
REMARK  105  A    between atoms: _272  and  _273
REMARK  106  A    between atoms: _273  and  _274
REMARK  107  A    between atoms: _283  and  _285
REMARK  108  A    between atoms: _285  and  _286
REMARK  109  A    between atoms: _285  and  _288
REMARK  110  A    between atoms: _288  and  _289
REMARK  111  A    between atoms: _289  and  _290
REMARK  112  A    between atoms: _290  and  _291
REMARK  113  A    between atoms: _291  and  _292
REMARK  114  A    between atoms: _296  and  _298
REMARK  115  A    between atoms: _298  and  _299
REMARK  116  A    between atoms: _298  and  _301
REMARK  117  A    between atoms: _301  and  _302
REMARK  118  A    between atoms: _302  and  _303
REMARK  119  A    between atoms: _306  and  _308
REMARK  120  A    between atoms: _308  and  _309
REMARK  121  A    between atoms: _308  and  _311
REMARK  122  A    between atoms: _314  and  _316
REMARK  123  A    between atoms: _316  and  _317
REMARK  124  A    between atoms: _316  and  _319
REMARK  125  A    between atoms: _319  and  _320
REMARK  126  A    between atoms: _330  and  _332
REMARK  127  A    between atoms: _332  and  _333
REMARK  128  A    between atoms: _332  and  _335
REMARK  129  A    between atoms: _335  and  _336
REMARK  130  A    between atoms: _336  and  _337
REMARK                            x       y       z     vdW  Elec       q    Type
REMARK                         _______ _______ _______ _____ _____    ______ ____
ROOT
ATOM      1  O   HOH     1      12.796  -3.990  23.581  0.00  0.00    +0.000 OA
ENDROOT
TORSDOF 0
REMARK  Name = ../refined-set-2016/3arw/3arw_pocket.pdb
REMARK  130 active torsions:
REMARK  status: ('A' for Active; 'I' for Inactive)
REMARK    1  A    between atoms: _1  and  _3
REMARK    2  A    between atoms: _3  and  _4
REMARK    3  A    between atoms: _3  and  _6
REMARK    4  A    between atoms: _6  and  _7
REMARK    5  A    between atoms: _17  and  _19
REMARK    6  A    between atoms: _19  and  _20
REMARK    7  A    between atoms: _19  and  _22
REMARK    8  A    between atoms: _22  and  _23
REMARK    9  A    between atoms: _29  and  _31
REMARK   10  A    between atoms: _31  and  _32
REMARK   11  A    between atoms: _31  and  _34
REMARK   12  A    between atoms: _34  and  _35
REMARK   13  A    between atoms: _37  and  _39
REMARK   14  A    between atoms: _39  and  _40
REMARK   15  A    between atoms: _39  and  _42
REMARK   16  A    between atoms: _42  and  _43
REMARK   17  A    between atoms: _45  and  _47
REMARK   18  A    between atoms: _47  and  _48
REMARK   19  A    between atoms: _47  and  _50
REMARK   20  A    between atoms: _53  and  _55
REMARK   21  A    between atoms: _55  and  _56
REMARK   22  A    between atoms: _58  and  _60
REMARK   23  A    between atoms: _60  and  _61
REMARK   24  A    between atoms: _60  and  _63
REMARK   25  A    between atoms: _63  and  _64
REMARK   26  A    between atoms: _74  and  _76
REMARK   27  A    between atoms: _76  and  _77
REMARK   28  A    between atoms: _76  and  _79
REMARK   29  A    between atoms: _79  and  _80
REMARK   30  A    between atoms: _83  and  _85
REMARK   31  A    between atoms: _85  and  _86
REMARK   32  A    between atoms: _85  and  _88
REMARK   33  A    between atoms: _88  and  _89
REMARK   34  A    between atoms: _92  and  _94
REMARK   35  A    between atoms: _94  and  _95
REMARK   36  A    between atoms: _94  and  _97
REMARK   37  A    between atoms: _97  and  _98
REMARK   38  A    between atoms: _98  and  _99
REMARK   39  A    between atoms: _102  and  _104
REMARK   40  A    between atoms: _104  and  _105
REMARK   41  A    between atoms: _104  and  _107
REMARK   42  A    between atoms: _107  and  _108
REMARK   43  A    between atoms: _114  and  _116
REMARK   44  A    between atoms: _116  and  _117
REMARK   45  A    between atoms: _119  and  _121
REMARK   46  A    between atoms: _121  and  _122
REMARK   47  A    between atoms: _124  and  _126
REMARK   48  A    between atoms: _126  and  _127
REMARK   49  A    between atoms: _130  and  _132
REMARK   50  A    between atoms: _132  and  _133
REMARK   51  A    between atoms: _132  and  _135
REMARK   52  A    between atoms: _135  and  _136
REMARK   53  A    between atoms: _136  and  _137
REMARK   54  A    between atoms: _137  and  _138
REMARK   55  A    between atoms: _138  and  _139
REMARK   56  A    between atoms: _143  and  _145
REMARK   57  A    between atoms: _145  and  _146
REMARK   58  A    between atoms: _145  and  _148
REMARK   59  A    between atoms: _148  and  _149
REMARK   60  A    between atoms: _149  and  _150
REMARK   61  A    between atoms: _152  and  _154
REMARK   62  A    between atoms: _154  and  _155
REMARK   63  A    between atoms: _154  and  _157
REMARK   64  A    between atoms: _157  and  _158
REMARK   65  A    between atoms: _163  and  _164
REMARK   66  A    between atoms: _166  and  _168
REMARK   67  A    between atoms: _168  and  _169
REMARK   68  A    between atoms: _168  and  _171
REMARK   69  A    between atoms: _171  and  _172
REMARK   70  A    between atoms: _175  and  _177
REMARK   71  A    between atoms: _177  and  _178
REMARK   72  A    between atoms: _177  and  _180
REMARK   73  A    between atoms: _180  and  _181
REMARK   74  A    between atoms: _187  and  _189
REMARK   75  A    between atoms: _189  and  _190
REMARK   76  A    between atoms: _189  and  _192
REMARK   77  A    between atoms: _192  and  _193
REMARK   78  A    between atoms: _198  and  _199
REMARK   79  A    between atoms: _201  and  _203
REMARK   80  A    between atoms: _203  and  _204
REMARK   81  A    between atoms: _206  and  _208
REMARK   82  A    between atoms: _208  and  _209
REMARK   83  A    between atoms: _211  and  _213
REMARK   84  A    between atoms: _213  and  _214
REMARK   85  A    between atoms: _213  and  _216
REMARK   86  A    between atoms: _216  and  _217
REMARK   87  A    between atoms: _227  and  _229
REMARK   88  A    between atoms: _229  and  _230
REMARK   89  A    between atoms: _229  and  _232
REMARK   90  A    between atoms: _232  and  _233
REMARK   91  A    between atoms: _238  and  _240
REMARK   92  A    between atoms: _240  and  _241
REMARK   93  A    between atoms: _240  and  _243
REMARK   94  A    between atoms: _243  and  _244
REMARK   95  A    between atoms: _249  and  _250
REMARK   96  A    between atoms: _252  and  _254
REMARK   97  A    between atoms: _254  and  _255
REMARK   98  A    between atoms: _254  and  _257
REMARK   99  A    between atoms: _257  and  _258
REMARK  100  A    between atoms: _263  and  _264
REMARK  101  A    between atoms: _266  and  _268
REMARK  102  A    between atoms: _268  and  _269
REMARK  103  A    between atoms: _268  and  _271
REMARK  104  A    between atoms: _271  and  _272
REMARK  105  A    between atoms: _272  and  _273
REMARK  106  A    between atoms: _273  and  _274
REMARK  107  A    between atoms: _283  and  _285
REMARK  108  A    between atoms: _285  and  _286
REMARK  109  A    between atoms: _285  and  _288
REMARK  110  A    between atoms: _288  and  _289
REMARK  111  A    between atoms: _289  and  _290
REMARK  112  A    between atoms: _290  and  _291
REMARK  113  A    between atoms: _291  and  _292
REMARK  114  A    between atoms: _296  and  _298
REMARK  115  A    between atoms: _298  and  _299
REMARK  116  A    between atoms: _298  and  _301
REMARK  117  A    between atoms: _301  and  _302
REMARK  118  A    between atoms: _302  and  _303
REMARK  119  A    between atoms: _306  and  _308
REMARK  120  A    between atoms: _308  and  _309
REMARK  121  A    between atoms: _308  and  _311
REMARK  122  A    between atoms: _314  and  _316
REMARK  123  A    between atoms: _316  and  _317
REMARK  124  A    between atoms: _316  and  _319
REMARK  125  A    between atoms: _319  and  _320
REMARK  126  A    between atoms: _330  and  _332
REMARK  127  A    between atoms: _332  and  _333
REMARK  128  A    between atoms: _332  and  _335
REMARK  129  A    between atoms: _335  and  _336
REMARK  130  A    between atoms: _336  and  _337
REMARK                            x       y       z     vdW  Elec       q    Type
REMARK                         _______ _______ _______ _____ _____    ______ ____
ROOT
ATOM      1  O   HOH     1       7.355 -11.809  22.099  0.00  0.00    +0.000 OA
ENDROOT
TORSDOF 0
REMARK  Name = ../refined-set-2016/3arw/3arw_pocket.pdb
REMARK  130 active torsions:
REMARK  status: ('A' for Active; 'I' for Inactive)
REMARK    1  A    between atoms: _1  and  _3
REMARK    2  A    between atoms: _3  and  _4
REMARK    3  A    between atoms: _3  and  _6
REMARK    4  A    between atoms: _6  and  _7
REMARK    5  A    between atoms: _17  and  _19
REMARK    6  A    between atoms: _19  and  _20
REMARK    7  A    between atoms: _19  and  _22
REMARK    8  A    between atoms: _22  and  _23
REMARK    9  A    between atoms: _29  and  _31
REMARK   10  A    between atoms: _31  and  _32
REMARK   11  A    between atoms: _31  and  _34
REMARK   12  A    between atoms: _34  and  _35
REMARK   13  A    between atoms: _37  and  _39
REMARK   14  A    between atoms: _39  and  _40
REMARK   15  A    between atoms: _39  and  _42
REMARK   16  A    between atoms: _42  and  _43
REMARK   17  A    between atoms: _45  and  _47
REMARK   18  A    between atoms: _47  and  _48
REMARK   19  A    between atoms: _47  and  _50
REMARK   20  A    between atoms: _53  and  _55
REMARK   21  A    between atoms: _55  and  _56
REMARK   22  A    between atoms: _58  and  _60
REMARK   23  A    between atoms: _60  and  _61
REMARK   24  A    between atoms: _60  and  _63
REMARK   25  A    between atoms: _63  and  _64
REMARK   26  A    between atoms: _74  and  _76
REMARK   27  A    between atoms: _76  and  _77
REMARK   28  A    between atoms: _76  and  _79
REMARK   29  A    between atoms: _79  and  _80
REMARK   30  A    between atoms: _83  and  _85
REMARK   31  A    between atoms: _85  and  _86
REMARK   32  A    between atoms: _85  and  _88
REMARK   33  A    between atoms: _88  and  _89
REMARK   34  A    between atoms: _92  and  _94
REMARK   35  A    between atoms: _94  and  _95
REMARK   36  A    between atoms: _94  and  _97
REMARK   37  A    between atoms: _97  and  _98
REMARK   38  A    between atoms: _98  and  _99
REMARK   39  A    between atoms: _102  and  _104
REMARK   40  A    between atoms: _104  and  _105
REMARK   41  A    between atoms: _104  and  _107
REMARK   42  A    between atoms: _107  and  _108
REMARK   43  A    between atoms: _114  and  _116
REMARK   44  A    between atoms: _116  and  _117
REMARK   45  A    between atoms: _119  and  _121
REMARK   46  A    between atoms: _121  and  _122
REMARK   47  A    between atoms: _124  and  _126
REMARK   48  A    between atoms: _126  and  _127
REMARK   49  A    between atoms: _130  and  _132
REMARK   50  A    between atoms: _132  and  _133
REMARK   51  A    between atoms: _132  and  _135
REMARK   52  A    between atoms: _135  and  _136
REMARK   53  A    between atoms: _136  and  _137
REMARK   54  A    between atoms: _137  and  _138
REMARK   55  A    between atoms: _138  and  _139
REMARK   56  A    between atoms: _143  and  _145
REMARK   57  A    between atoms: _145  and  _146
REMARK   58  A    between atoms: _145  and  _148
REMARK   59  A    between atoms: _148  and  _149
REMARK   60  A    between atoms: _149  and  _150
REMARK   61  A    between atoms: _152  and  _154
REMARK   62  A    between atoms: _154  and  _155
REMARK   63  A    between atoms: _154  and  _157
REMARK   64  A    between atoms: _157  and  _158
REMARK   65  A    between atoms: _163  and  _164
REMARK   66  A    between atoms: _166  and  _168
REMARK   67  A    between atoms: _168  and  _169
REMARK   68  A    between atoms: _168  and  _171
REMARK   69  A    between atoms: _171  and  _172
REMARK   70  A    between atoms: _175  and  _177
REMARK   71  A    between atoms: _177  and  _178
REMARK   72  A    between atoms: _177  and  _180
REMARK   73  A    between atoms: _180  and  _181
REMARK   74  A    between atoms: _187  and  _189
REMARK   75  A    between atoms: _189  and  _190
REMARK   76  A    between atoms: _189  and  _192
REMARK   77  A    between atoms: _192  and  _193
REMARK   78  A    between atoms: _198  and  _199
REMARK   79  A    between atoms: _201  and  _203
REMARK   80  A    between atoms: _203  and  _204
REMARK   81  A    between atoms: _206  and  _208
REMARK   82  A    between atoms: _208  and  _209
REMARK   83  A    between atoms: _211  and  _213
REMARK   84  A    between atoms: _213  and  _214
REMARK   85  A    between atoms: _213  and  _216
REMARK   86  A    between atoms: _216  and  _217
REMARK   87  A    between atoms: _227  and  _229
REMARK   88  A    between atoms: _229  and  _230
REMARK   89  A    between atoms: _229  and  _232
REMARK   90  A    between atoms: _232  and  _233
REMARK   91  A    between atoms: _238  and  _240
REMARK   92  A    between atoms: _240  and  _241
REMARK   93  A    between atoms: _240  and  _243
REMARK   94  A    between atoms: _243  and  _244
REMARK   95  A    between atoms: _249  and  _250
REMARK   96  A    between atoms: _252  and  _254
REMARK   97  A    between atoms: _254  and  _255
REMARK   98  A    between atoms: _254  and  _257
REMARK   99  A    between atoms: _257  and  _258
REMARK  100  A    between atoms: _263  and  _264
REMARK  101  A    between atoms: _266  and  _268
REMARK  102  A    between atoms: _268  and  _269
REMARK  103  A    between atoms: _268  and  _271
REMARK  104  A    between atoms: _271  and  _272
REMARK  105  A    between atoms: _272  and  _273
REMARK  106  A    between atoms: _273  and  _274
REMARK  107  A    between atoms: _283  and  _285
REMARK  108  A    between atoms: _285  and  _286
REMARK  109  A    between atoms: _285  and  _288
REMARK  110  A    between atoms: _288  and  _289
REMARK  111  A    between atoms: _289  and  _290
REMARK  112  A    between atoms: _290  and  _291
REMARK  113  A    between atoms: _291  and  _292
REMARK  114  A    between atoms: _296  and  _298
REMARK  115  A    between atoms: _298  and  _299
REMARK  116  A    between atoms: _298  and  _301
REMARK  117  A    between atoms: _301  and  _302
REMARK  118  A    between atoms: _302  and  _303
REMARK  119  A    between atoms: _306  and  _308
REMARK  120  A    between atoms: _308  and  _309
REMARK  121  A    between atoms: _308  and  _311
REMARK  122  A    between atoms: _314  and  _316
REMARK  123  A    between atoms: _316  and  _317
REMARK  124  A    between atoms: _316  and  _319
REMARK  125  A    between atoms: _319  and  _320
REMARK  126  A    between atoms: _330  and  _332
REMARK  127  A    between atoms: _332  and  _333
REMARK  128  A    between atoms: _332  and  _335
REMARK  129  A    between atoms: _335  and  _336
REMARK  130  A    between atoms: _336  and  _337
REMARK                            x       y       z     vdW  Elec       q    Type
REMARK                         _______ _______ _______ _____ _____    ______ ____
ROOT
ATOM      1  O   HOH     1      11.583 -11.079  21.256  0.00  0.00    +0.000 OA
ENDROOT
TORSDOF 0
REMARK  Name = ../refined-set-2016/3arw/3arw_pocket.pdb
REMARK  130 active torsions:
REMARK  status: ('A' for Active; 'I' for Inactive)
REMARK    1  A    between atoms: _1  and  _3
REMARK    2  A    between atoms: _3  and  _4
REMARK    3  A    between atoms: _3  and  _6
REMARK    4  A    between atoms: _6  and  _7
REMARK    5  A    between atoms: _17  and  _19
REMARK    6  A    between atoms: _19  and  _20
REMARK    7  A    between atoms: _19  and  _22
REMARK    8  A    between atoms: _22  and  _23
REMARK    9  A    between atoms: _29  and  _31
REMARK   10  A    between atoms: _31  and  _32
REMARK   11  A    between atoms: _31  and  _34
REMARK   12  A    between atoms: _34  and  _35
REMARK   13  A    between atoms: _37  and  _39
REMARK   14  A    between atoms: _39  and  _40
REMARK   15  A    between atoms: _39  and  _42
REMARK   16  A    between atoms: _42  and  _43
REMARK   17  A    between atoms: _45  and  _47
REMARK   18  A    between atoms: _47  and  _48
REMARK   19  A    between atoms: _47  and  _50
REMARK   20  A    between atoms: _53  and  _55
REMARK   21  A    between atoms: _55  and  _56
REMARK   22  A    between atoms: _58  and  _60
REMARK   23  A    between atoms: _60  and  _61
REMARK   24  A    between atoms: _60  and  _63
REMARK   25  A    between atoms: _63  and  _64
REMARK   26  A    between atoms: _74  and  _76
REMARK   27  A    between atoms: _76  and  _77
REMARK   28  A    between atoms: _76  and  _79
REMARK   29  A    between atoms: _79  and  _80
REMARK   30  A    between atoms: _83  and  _85
REMARK   31  A    between atoms: _85  and  _86
REMARK   32  A    between atoms: _85  and  _88
REMARK   33  A    between atoms: _88  and  _89
REMARK   34  A    between atoms: _92  and  _94
REMARK   35  A    between atoms: _94  and  _95
REMARK   36  A    between atoms: _94  and  _97
REMARK   37  A    between atoms: _97  and  _98
REMARK   38  A    between atoms: _98  and  _99
REMARK   39  A    between atoms: _102  and  _104
REMARK   40  A    between atoms: _104  and  _105
REMARK   41  A    between atoms: _104  and  _107
REMARK   42  A    between atoms: _107  and  _108
REMARK   43  A    between atoms: _114  and  _116
REMARK   44  A    between atoms: _116  and  _117
REMARK   45  A    between atoms: _119  and  _121
REMARK   46  A    between atoms: _121  and  _122
REMARK   47  A    between atoms: _124  and  _126
REMARK   48  A    between atoms: _126  and  _127
REMARK   49  A    between atoms: _130  and  _132
REMARK   50  A    between atoms: _132  and  _133
REMARK   51  A    between atoms: _132  and  _135
REMARK   52  A    between atoms: _135  and  _136
REMARK   53  A    between atoms: _136  and  _137
REMARK   54  A    between atoms: _137  and  _138
REMARK   55  A    between atoms: _138  and  _139
REMARK   56  A    between atoms: _143  and  _145
REMARK   57  A    between atoms: _145  and  _146
REMARK   58  A    between atoms: _145  and  _148
REMARK   59  A    between atoms: _148  and  _149
REMARK   60  A    between atoms: _149  and  _150
REMARK   61  A    between atoms: _152  and  _154
REMARK   62  A    between atoms: _154  and  _155
REMARK   63  A    between atoms: _154  and  _157
REMARK   64  A    between atoms: _157  and  _158
REMARK   65  A    between atoms: _163  and  _164
REMARK   66  A    between atoms: _166  and  _168
REMARK   67  A    between atoms: _168  and  _169
REMARK   68  A    between atoms: _168  and  _171
REMARK   69  A    between atoms: _171  and  _172
REMARK   70  A    between atoms: _175  and  _177
REMARK   71  A    between atoms: _177  and  _178
REMARK   72  A    between atoms: _177  and  _180
REMARK   73  A    between atoms: _180  and  _181
REMARK   74  A    between atoms: _187  and  _189
REMARK   75  A    between atoms: _189  and  _190
REMARK   76  A    between atoms: _189  and  _192
REMARK   77  A    between atoms: _192  and  _193
REMARK   78  A    between atoms: _198  and  _199
REMARK   79  A    between atoms: _201  and  _203
REMARK   80  A    between atoms: _203  and  _204
REMARK   81  A    between atoms: _206  and  _208
REMARK   82  A    between atoms: _208  and  _209
REMARK   83  A    between atoms: _211  and  _213
REMARK   84  A    between atoms: _213  and  _214
REMARK   85  A    between atoms: _213  and  _216
REMARK   86  A    between atoms: _216  and  _217
REMARK   87  A    between atoms: _227  and  _229
REMARK   88  A    between atoms: _229  and  _230
REMARK   89  A    between atoms: _229  and  _232
REMARK   90  A    between atoms: _232  and  _233
REMARK   91  A    between atoms: _238  and  _240
REMARK   92  A    between atoms: _240  and  _241
REMARK   93  A    between atoms: _240  and  _243
REMARK   94  A    between atoms: _243  and  _244
REMARK   95  A    between atoms: _249  and  _250
REMARK   96  A    between atoms: _252  and  _254
REMARK   97  A    between atoms: _254  and  _255
REMARK   98  A    between atoms: _254  and  _257
REMARK   99  A    between atoms: _257  and  _258
REMARK  100  A    between atoms: _263  and  _264
REMARK  101  A    between atoms: _266  and  _268
REMARK  102  A    between atoms: _268  and  _269
REMARK  103  A    between atoms: _268  and  _271
REMARK  104  A    between atoms: _271  and  _272
REMARK  105  A    between atoms: _272  and  _273
REMARK  106  A    between atoms: _273  and  _274
REMARK  107  A    between atoms: _283  and  _285
REMARK  108  A    between atoms: _285  and  _286
REMARK  109  A    between atoms: _285  and  _288
REMARK  110  A    between atoms: _288  and  _289
REMARK  111  A    between atoms: _289  and  _290
REMARK  112  A    between atoms: _290  and  _291
REMARK  113  A    between atoms: _291  and  _292
REMARK  114  A    between atoms: _296  and  _298
REMARK  115  A    between atoms: _298  and  _299
REMARK  116  A    between atoms: _298  and  _301
REMARK  117  A    between atoms: _301  and  _302
REMARK  118  A    between atoms: _302  and  _303
REMARK  119  A    between atoms: _306  and  _308
REMARK  120  A    between atoms: _308  and  _309
REMARK  121  A    between atoms: _308  and  _311
REMARK  122  A    between atoms: _314  and  _316
REMARK  123  A    between atoms: _316  and  _317
REMARK  124  A    between atoms: _316  and  _319
REMARK  125  A    between atoms: _319  and  _320
REMARK  126  A    between atoms: _330  and  _332
REMARK  127  A    between atoms: _332  and  _333
REMARK  128  A    between atoms: _332  and  _335
REMARK  129  A    between atoms: _335  and  _336
REMARK  130  A    between atoms: _336  and  _337
REMARK                            x       y       z     vdW  Elec       q    Type
REMARK                         _______ _______ _______ _____ _____    ______ ____
ROOT
ATOM      1  O   HOH     1      17.537 -13.545  18.184  0.00  0.00    +0.000 OA
ENDROOT
TORSDOF 0
REMARK  Name = ../refined-set-2016/3arw/3arw_pocket.pdb
REMARK  130 active torsions:
REMARK  status: ('A' for Active; 'I' for Inactive)
REMARK    1  A    between atoms: _1  and  _3
REMARK    2  A    between atoms: _3  and  _4
REMARK    3  A    between atoms: _3  and  _6
REMARK    4  A    between atoms: _6  and  _7
REMARK    5  A    between atoms: _17  and  _19
REMARK    6  A    between atoms: _19  and  _20
REMARK    7  A    between atoms: _19  and  _22
REMARK    8  A    between atoms: _22  and  _23
REMARK    9  A    between atoms: _29  and  _31
REMARK   10  A    between atoms: _31  and  _32
REMARK   11  A    between atoms: _31  and  _34
REMARK   12  A    between atoms: _34  and  _35
REMARK   13  A    between atoms: _37  and  _39
REMARK   14  A    between atoms: _39  and  _40
REMARK   15  A    between atoms: _39  and  _42
REMARK   16  A    between atoms: _42  and  _43
REMARK   17  A    between atoms: _45  and  _47
REMARK   18  A    between atoms: _47  and  _48
REMARK   19  A    between atoms: _47  and  _50
REMARK   20  A    between atoms: _53  and  _55
REMARK   21  A    between atoms: _55  and  _56
REMARK   22  A    between atoms: _58  and  _60
REMARK   23  A    between atoms: _60  and  _61
REMARK   24  A    between atoms: _60  and  _63
REMARK   25  A    between atoms: _63  and  _64
REMARK   26  A    between atoms: _74  and  _76
REMARK   27  A    between atoms: _76  and  _77
REMARK   28  A    between atoms: _76  and  _79
REMARK   29  A    between atoms: _79  and  _80
REMARK   30  A    between atoms: _83  and  _85
REMARK   31  A    between atoms: _85  and  _86
REMARK   32  A    between atoms: _85  and  _88
REMARK   33  A    between atoms: _88  and  _89
REMARK   34  A    between atoms: _92  and  _94
REMARK   35  A    between atoms: _94  and  _95
REMARK   36  A    between atoms: _94  and  _97
REMARK   37  A    between atoms: _97  and  _98
REMARK   38  A    between atoms: _98  and  _99
REMARK   39  A    between atoms: _102  and  _104
REMARK   40  A    between atoms: _104  and  _105
REMARK   41  A    between atoms: _104  and  _107
REMARK   42  A    between atoms: _107  and  _108
REMARK   43  A    between atoms: _114  and  _116
REMARK   44  A    between atoms: _116  and  _117
REMARK   45  A    between atoms: _119  and  _121
REMARK   46  A    between atoms: _121  and  _122
REMARK   47  A    between atoms: _124  and  _126
REMARK   48  A    between atoms: _126  and  _127
REMARK   49  A    between atoms: _130  and  _132
REMARK   50  A    between atoms: _132  and  _133
REMARK   51  A    between atoms: _132  and  _135
REMARK   52  A    between atoms: _135  and  _136
REMARK   53  A    between atoms: _136  and  _137
REMARK   54  A    between atoms: _137  and  _138
REMARK   55  A    between atoms: _138  and  _139
REMARK   56  A    between atoms: _143  and  _145
REMARK   57  A    between atoms: _145  and  _146
REMARK   58  A    between atoms: _145  and  _148
REMARK   59  A    between atoms: _148  and  _149
REMARK   60  A    between atoms: _149  and  _150
REMARK   61  A    between atoms: _152  and  _154
REMARK   62  A    between atoms: _154  and  _155
REMARK   63  A    between atoms: _154  and  _157
REMARK   64  A    between atoms: _157  and  _158
REMARK   65  A    between atoms: _163  and  _164
REMARK   66  A    between atoms: _166  and  _168
REMARK   67  A    between atoms: _168  and  _169
REMARK   68  A    between atoms: _168  and  _171
REMARK   69  A    between atoms: _171  and  _172
REMARK   70  A    between atoms: _175  and  _177
REMARK   71  A    between atoms: _177  and  _178
REMARK   72  A    between atoms: _177  and  _180
REMARK   73  A    between atoms: _180  and  _181
REMARK   74  A    between atoms: _187  and  _189
REMARK   75  A    between atoms: _189  and  _190
REMARK   76  A    between atoms: _189  and  _192
REMARK   77  A    between atoms: _192  and  _193
REMARK   78  A    between atoms: _198  and  _199
REMARK   79  A    between atoms: _201  and  _203
REMARK   80  A    between atoms: _203  and  _204
REMARK   81  A    between atoms: _206  and  _208
REMARK   82  A    between atoms: _208  and  _209
REMARK   83  A    between atoms: _211  and  _213
REMARK   84  A    between atoms: _213  and  _214
REMARK   85  A    between atoms: _213  and  _216
REMARK   86  A    between atoms: _216  and  _217
REMARK   87  A    between atoms: _227  and  _229
REMARK   88  A    between atoms: _229  and  _230
REMARK   89  A    between atoms: _229  and  _232
REMARK   90  A    between atoms: _232  and  _233
REMARK   91  A    between atoms: _238  and  _240
REMARK   92  A    between atoms: _240  and  _241
REMARK   93  A    between atoms: _240  and  _243
REMARK   94  A    between atoms: _243  and  _244
REMARK   95  A    between atoms: _249  and  _250
REMARK   96  A    between atoms: _252  and  _254
REMARK   97  A    between atoms: _254  and  _255
REMARK   98  A    between atoms: _254  and  _257
REMARK   99  A    between atoms: _257  and  _258
REMARK  100  A    between atoms: _263  and  _264
REMARK  101  A    between atoms: _266  and  _268
REMARK  102  A    between atoms: _268  and  _269
REMARK  103  A    between atoms: _268  and  _271
REMARK  104  A    between atoms: _271  and  _272
REMARK  105  A    between atoms: _272  and  _273
REMARK  106  A    between atoms: _273  and  _274
REMARK  107  A    between atoms: _283  and  _285
REMARK  108  A    between atoms: _285  and  _286
REMARK  109  A    between atoms: _285  and  _288
REMARK  110  A    between atoms: _288  and  _289
REMARK  111  A    between atoms: _289  and  _290
REMARK  112  A    between atoms: _290  and  _291
REMARK  113  A    between atoms: _291  and  _292
REMARK  114  A    between atoms: _296  and  _298
REMARK  115  A    between atoms: _298  and  _299
REMARK  116  A    between atoms: _298  and  _301
REMARK  117  A    between atoms: _301  and  _302
REMARK  118  A    between atoms: _302  and  _303
REMARK  119  A    between atoms: _306  and  _308
REMARK  120  A    between atoms: _308  and  _309
REMARK  121  A    between atoms: _308  and  _311
REMARK  122  A    between atoms: _314  and  _316
REMARK  123  A    between atoms: _316  and  _317
REMARK  124  A    between atoms: _316  and  _319
REMARK  125  A    between atoms: _319  and  _320
REMARK  126  A    between atoms: _330  and  _332
REMARK  127  A    between atoms: _332  and  _333
REMARK  128  A    between atoms: _332  and  _335
REMARK  129  A    between atoms: _335  and  _336
REMARK  130  A    between atoms: _336  and  _337
REMARK                            x       y       z     vdW  Elec       q    Type
REMARK                         _______ _______ _______ _____ _____    ______ ____
ROOT
ATOM      1  O   HOH     1       7.351  -9.512  30.418  0.00  0.00    +0.000 OA
ENDROOT
TORSDOF 0
REMARK  Name = ../refined-set-2016/3arw/3arw_pocket.pdb
REMARK  130 active torsions:
REMARK  status: ('A' for Active; 'I' for Inactive)
REMARK    1  A    between atoms: _1  and  _3
REMARK    2  A    between atoms: _3  and  _4
REMARK    3  A    between atoms: _3  and  _6
REMARK    4  A    between atoms: _6  and  _7
REMARK    5  A    between atoms: _17  and  _19
REMARK    6  A    between atoms: _19  and  _20
REMARK    7  A    between atoms: _19  and  _22
REMARK    8  A    between atoms: _22  and  _23
REMARK    9  A    between atoms: _29  and  _31
REMARK   10  A    between atoms: _31  and  _32
REMARK   11  A    between atoms: _31  and  _34
REMARK   12  A    between atoms: _34  and  _35
REMARK   13  A    between atoms: _37  and  _39
REMARK   14  A    between atoms: _39  and  _40
REMARK   15  A    between atoms: _39  and  _42
REMARK   16  A    between atoms: _42  and  _43
REMARK   17  A    between atoms: _45  and  _47
REMARK   18  A    between atoms: _47  and  _48
REMARK   19  A    between atoms: _47  and  _50
REMARK   20  A    between atoms: _53  and  _55
REMARK   21  A    between atoms: _55  and  _56
REMARK   22  A    between atoms: _58  and  _60
REMARK   23  A    between atoms: _60  and  _61
REMARK   24  A    between atoms: _60  and  _63
REMARK   25  A    between atoms: _63  and  _64
REMARK   26  A    between atoms: _74  and  _76
REMARK   27  A    between atoms: _76  and  _77
REMARK   28  A    between atoms: _76  and  _79
REMARK   29  A    between atoms: _79  and  _80
REMARK   30  A    between atoms: _83  and  _85
REMARK   31  A    between atoms: _85  and  _86
REMARK   32  A    between atoms: _85  and  _88
REMARK   33  A    between atoms: _88  and  _89
REMARK   34  A    between atoms: _92  and  _94
REMARK   35  A    between atoms: _94  and  _95
REMARK   36  A    between atoms: _94  and  _97
REMARK   37  A    between atoms: _97  and  _98
REMARK   38  A    between atoms: _98  and  _99
REMARK   39  A    between atoms: _102  and  _104
REMARK   40  A    between atoms: _104  and  _105
REMARK   41  A    between atoms: _104  and  _107
REMARK   42  A    between atoms: _107  and  _108
REMARK   43  A    between atoms: _114  and  _116
REMARK   44  A    between atoms: _116  and  _117
REMARK   45  A    between atoms: _119  and  _121
REMARK   46  A    between atoms: _121  and  _122
REMARK   47  A    between atoms: _124  and  _126
REMARK   48  A    between atoms: _126  and  _127
REMARK   49  A    between atoms: _130  and  _132
REMARK   50  A    between atoms: _132  and  _133
REMARK   51  A    between atoms: _132  and  _135
REMARK   52  A    between atoms: _135  and  _136
REMARK   53  A    between atoms: _136  and  _137
REMARK   54  A    between atoms: _137  and  _138
REMARK   55  A    between atoms: _138  and  _139
REMARK   56  A    between atoms: _143  and  _145
REMARK   57  A    between atoms: _145  and  _146
REMARK   58  A    between atoms: _145  and  _148
REMARK   59  A    between atoms: _148  and  _149
REMARK   60  A    between atoms: _149  and  _150
REMARK   61  A    between atoms: _152  and  _154
REMARK   62  A    between atoms: _154  and  _155
REMARK   63  A    between atoms: _154  and  _157
REMARK   64  A    between atoms: _157  and  _158
REMARK   65  A    between atoms: _163  and  _164
REMARK   66  A    between atoms: _166  and  _168
REMARK   67  A    between atoms: _168  and  _169
REMARK   68  A    between atoms: _168  and  _171
REMARK   69  A    between atoms: _171  and  _172
REMARK   70  A    between atoms: _175  and  _177
REMARK   71  A    between atoms: _177  and  _178
REMARK   72  A    between atoms: _177  and  _180
REMARK   73  A    between atoms: _180  and  _181
REMARK   74  A    between atoms: _187  and  _189
REMARK   75  A    between atoms: _189  and  _190
REMARK   76  A    between atoms: _189  and  _192
REMARK   77  A    between atoms: _192  and  _193
REMARK   78  A    between atoms: _198  and  _199
REMARK   79  A    between atoms: _201  and  _203
REMARK   80  A    between atoms: _203  and  _204
REMARK   81  A    between atoms: _206  and  _208
REMARK   82  A    between atoms: _208  and  _209
REMARK   83  A    between atoms: _211  and  _213
REMARK   84  A    between atoms: _213  and  _214
REMARK   85  A    between atoms: _213  and  _216
REMARK   86  A    between atoms: _216  and  _217
REMARK   87  A    between atoms: _227  and  _229
REMARK   88  A    between atoms: _229  and  _230
REMARK   89  A    between atoms: _229  and  _232
REMARK   90  A    between atoms: _232  and  _233
REMARK   91  A    between atoms: _238  and  _240
REMARK   92  A    between atoms: _240  and  _241
REMARK   93  A    between atoms: _240  and  _243
REMARK   94  A    between atoms: _243  and  _244
REMARK   95  A    between atoms: _249  and  _250
REMARK   96  A    between atoms: _252  and  _254
REMARK   97  A    between atoms: _254  and  _255
REMARK   98  A    between atoms: _254  and  _257
REMARK   99  A    between atoms: _257  and  _258
REMARK  100  A    between atoms: _263  and  _264
REMARK  101  A    between atoms: _266  and  _268
REMARK  102  A    between atoms: _268  and  _269
REMARK  103  A    between atoms: _268  and  _271
REMARK  104  A    between atoms: _271  and  _272
REMARK  105  A    between atoms: _272  and  _273
REMARK  106  A    between atoms: _273  and  _274
REMARK  107  A    between atoms: _283  and  _285
REMARK  108  A    between atoms: _285  and  _286
REMARK  109  A    between atoms: _285  and  _288
REMARK  110  A    between atoms: _288  and  _289
REMARK  111  A    between atoms: _289  and  _290
REMARK  112  A    between atoms: _290  and  _291
REMARK  113  A    between atoms: _291  and  _292
REMARK  114  A    between atoms: _296  and  _298
REMARK  115  A    between atoms: _298  and  _299
REMARK  116  A    between atoms: _298  and  _301
REMARK  117  A    between atoms: _301  and  _302
REMARK  118  A    between atoms: _302  and  _303
REMARK  119  A    between atoms: _306  and  _308
REMARK  120  A    between atoms: _308  and  _309
REMARK  121  A    between atoms: _308  and  _311
REMARK  122  A    between atoms: _314  and  _316
REMARK  123  A    between atoms: _316  and  _317
REMARK  124  A    between atoms: _316  and  _319
REMARK  125  A    between atoms: _319  and  _320
REMARK  126  A    between atoms: _330  and  _332
REMARK  127  A    between atoms: _332  and  _333
REMARK  128  A    between atoms: _332  and  _335
REMARK  129  A    between atoms: _335  and  _336
REMARK  130  A    between atoms: _336  and  _337
REMARK                            x       y       z     vdW  Elec       q    Type
REMARK                         _______ _______ _______ _____ _____    ______ ____
ROOT
ATOM      1  O   HOH     1      22.799 -10.851  16.145  0.00  0.00    +0.000 OA
ENDROOT
TORSDOF 0
REMARK  Name = ../refined-set-2016/3arw/3arw_pocket.pdb
REMARK  130 active torsions:
REMARK  status: ('A' for Active; 'I' for Inactive)
REMARK    1  A    between atoms: _1  and  _3
REMARK    2  A    between atoms: _3  and  _4
REMARK    3  A    between atoms: _3  and  _6
REMARK    4  A    between atoms: _6  and  _7
REMARK    5  A    between atoms: _17  and  _19
REMARK    6  A    between atoms: _19  and  _20
REMARK    7  A    between atoms: _19  and  _22
REMARK    8  A    between atoms: _22  and  _23
REMARK    9  A    between atoms: _29  and  _31
REMARK   10  A    between atoms: _31  and  _32
REMARK   11  A    between atoms: _31  and  _34
REMARK   12  A    between atoms: _34  and  _35
REMARK   13  A    between atoms: _37  and  _39
REMARK   14  A    between atoms: _39  and  _40
REMARK   15  A    between atoms: _39  and  _42
REMARK   16  A    between atoms: _42  and  _43
REMARK   17  A    between atoms: _45  and  _47
REMARK   18  A    between atoms: _47  and  _48
REMARK   19  A    between atoms: _47  and  _50
REMARK   20  A    between atoms: _53  and  _55
REMARK   21  A    between atoms: _55  and  _56
REMARK   22  A    between atoms: _58  and  _60
REMARK   23  A    between atoms: _60  and  _61
REMARK   24  A    between atoms: _60  and  _63
REMARK   25  A    between atoms: _63  and  _64
REMARK   26  A    between atoms: _74  and  _76
REMARK   27  A    between atoms: _76  and  _77
REMARK   28  A    between atoms: _76  and  _79
REMARK   29  A    between atoms: _79  and  _80
REMARK   30  A    between atoms: _83  and  _85
REMARK   31  A    between atoms: _85  and  _86
REMARK   32  A    between atoms: _85  and  _88
REMARK   33  A    between atoms: _88  and  _89
REMARK   34  A    between atoms: _92  and  _94
REMARK   35  A    between atoms: _94  and  _95
REMARK   36  A    between atoms: _94  and  _97
REMARK   37  A    between atoms: _97  and  _98
REMARK   38  A    between atoms: _98  and  _99
REMARK   39  A    between atoms: _102  and  _104
REMARK   40  A    between atoms: _104  and  _105
REMARK   41  A    between atoms: _104  and  _107
REMARK   42  A    between atoms: _107  and  _108
REMARK   43  A    between atoms: _114  and  _116
REMARK   44  A    between atoms: _116  and  _117
REMARK   45  A    between atoms: _119  and  _121
REMARK   46  A    between atoms: _121  and  _122
REMARK   47  A    between atoms: _124  and  _126
REMARK   48  A    between atoms: _126  and  _127
REMARK   49  A    between atoms: _130  and  _132
REMARK   50  A    between atoms: _132  and  _133
REMARK   51  A    between atoms: _132  and  _135
REMARK   52  A    between atoms: _135  and  _136
REMARK   53  A    between atoms: _136  and  _137
REMARK   54  A    between atoms: _137  and  _138
REMARK   55  A    between atoms: _138  and  _139
REMARK   56  A    between atoms: _143  and  _145
REMARK   57  A    between atoms: _145  and  _146
REMARK   58  A    between atoms: _145  and  _148
REMARK   59  A    between atoms: _148  and  _149
REMARK   60  A    between atoms: _149  and  _150
REMARK   61  A    between atoms: _152  and  _154
REMARK   62  A    between atoms: _154  and  _155
REMARK   63  A    between atoms: _154  and  _157
REMARK   64  A    between atoms: _157  and  _158
REMARK   65  A    between atoms: _163  and  _164
REMARK   66  A    between atoms: _166  and  _168
REMARK   67  A    between atoms: _168  and  _169
REMARK   68  A    between atoms: _168  and  _171
REMARK   69  A    between atoms: _171  and  _172
REMARK   70  A    between atoms: _175  and  _177
REMARK   71  A    between atoms: _177  and  _178
REMARK   72  A    between atoms: _177  and  _180
REMARK   73  A    between atoms: _180  and  _181
REMARK   74  A    between atoms: _187  and  _189
REMARK   75  A    between atoms: _189  and  _190
REMARK   76  A    between atoms: _189  and  _192
REMARK   77  A    between atoms: _192  and  _193
REMARK   78  A    between atoms: _198  and  _199
REMARK   79  A    between atoms: _201  and  _203
REMARK   80  A    between atoms: _203  and  _204
REMARK   81  A    between atoms: _206  and  _208
REMARK   82  A    between atoms: _208  and  _209
REMARK   83  A    between atoms: _211  and  _213
REMARK   84  A    between atoms: _213  and  _214
REMARK   85  A    between atoms: _213  and  _216
REMARK   86  A    between atoms: _216  and  _217
REMARK   87  A    between atoms: _227  and  _229
REMARK   88  A    between atoms: _229  and  _230
REMARK   89  A    between atoms: _229  and  _232
REMARK   90  A    between atoms: _232  and  _233
REMARK   91  A    between atoms: _238  and  _240
REMARK   92  A    between atoms: _240  and  _241
REMARK   93  A    between atoms: _240  and  _243
REMARK   94  A    between atoms: _243  and  _244
REMARK   95  A    between atoms: _249  and  _250
REMARK   96  A    between atoms: _252  and  _254
REMARK   97  A    between atoms: _254  and  _255
REMARK   98  A    between atoms: _254  and  _257
REMARK   99  A    between atoms: _257  and  _258
REMARK  100  A    between atoms: _263  and  _264
REMARK  101  A    between atoms: _266  and  _268
REMARK  102  A    between atoms: _268  and  _269
REMARK  103  A    between atoms: _268  and  _271
REMARK  104  A    between atoms: _271  and  _272
REMARK  105  A    between atoms: _272  and  _273
REMARK  106  A    between atoms: _273  and  _274
REMARK  107  A    between atoms: _283  and  _285
REMARK  108  A    between atoms: _285  and  _286
REMARK  109  A    between atoms: _285  and  _288
REMARK  110  A    between atoms: _288  and  _289
REMARK  111  A    between atoms: _289  and  _290
REMARK  112  A    between atoms: _290  and  _291
REMARK  113  A    between atoms: _291  and  _292
REMARK  114  A    between atoms: _296  and  _298
REMARK  115  A    between atoms: _298  and  _299
REMARK  116  A    between atoms: _298  and  _301
REMARK  117  A    between atoms: _301  and  _302
REMARK  118  A    between atoms: _302  and  _303
REMARK  119  A    between atoms: _306  and  _308
REMARK  120  A    between atoms: _308  and  _309
REMARK  121  A    between atoms: _308  and  _311
REMARK  122  A    between atoms: _314  and  _316
REMARK  123  A    between atoms: _316  and  _317
REMARK  124  A    between atoms: _316  and  _319
REMARK  125  A    between atoms: _319  and  _320
REMARK  126  A    between atoms: _330  and  _332
REMARK  127  A    between atoms: _332  and  _333
REMARK  128  A    between atoms: _332  and  _335
REMARK  129  A    between atoms: _335  and  _336
REMARK  130  A    between atoms: _336  and  _337
REMARK                            x       y       z     vdW  Elec       q    Type
REMARK                         _______ _______ _______ _____ _____    ______ ____
ROOT
ATOM      1  O   HOH     1      17.615  -3.186  29.749  0.00  0.00    +0.000 OA
ENDROOT
TORSDOF 0
REMARK  Name = ../refined-set-2016/3arw/3arw_pocket.pdb
REMARK  130 active torsions:
REMARK  status: ('A' for Active; 'I' for Inactive)
REMARK    1  A    between atoms: _1  and  _3
REMARK    2  A    between atoms: _3  and  _4
REMARK    3  A    between atoms: _3  and  _6
REMARK    4  A    between atoms: _6  and  _7
REMARK    5  A    between atoms: _17  and  _19
REMARK    6  A    between atoms: _19  and  _20
REMARK    7  A    between atoms: _19  and  _22
REMARK    8  A    between atoms: _22  and  _23
REMARK    9  A    between atoms: _29  and  _31
REMARK   10  A    between atoms: _31  and  _32
REMARK   11  A    between atoms: _31  and  _34
REMARK   12  A    between atoms: _34  and  _35
REMARK   13  A    between atoms: _37  and  _39
REMARK   14  A    between atoms: _39  and  _40
REMARK   15  A    between atoms: _39  and  _42
REMARK   16  A    between atoms: _42  and  _43
REMARK   17  A    between atoms: _45  and  _47
REMARK   18  A    between atoms: _47  and  _48
REMARK   19  A    between atoms: _47  and  _50
REMARK   20  A    between atoms: _53  and  _55
REMARK   21  A    between atoms: _55  and  _56
REMARK   22  A    between atoms: _58  and  _60
REMARK   23  A    between atoms: _60  and  _61
REMARK   24  A    between atoms: _60  and  _63
REMARK   25  A    between atoms: _63  and  _64
REMARK   26  A    between atoms: _74  and  _76
REMARK   27  A    between atoms: _76  and  _77
REMARK   28  A    between atoms: _76  and  _79
REMARK   29  A    between atoms: _79  and  _80
REMARK   30  A    between atoms: _83  and  _85
REMARK   31  A    between atoms: _85  and  _86
REMARK   32  A    between atoms: _85  and  _88
REMARK   33  A    between atoms: _88  and  _89
REMARK   34  A    between atoms: _92  and  _94
REMARK   35  A    between atoms: _94  and  _95
REMARK   36  A    between atoms: _94  and  _97
REMARK   37  A    between atoms: _97  and  _98
REMARK   38  A    between atoms: _98  and  _99
REMARK   39  A    between atoms: _102  and  _104
REMARK   40  A    between atoms: _104  and  _105
REMARK   41  A    between atoms: _104  and  _107
REMARK   42  A    between atoms: _107  and  _108
REMARK   43  A    between atoms: _114  and  _116
REMARK   44  A    between atoms: _116  and  _117
REMARK   45  A    between atoms: _119  and  _121
REMARK   46  A    between atoms: _121  and  _122
REMARK   47  A    between atoms: _124  and  _126
REMARK   48  A    between atoms: _126  and  _127
REMARK   49  A    between atoms: _130  and  _132
REMARK   50  A    between atoms: _132  and  _133
REMARK   51  A    between atoms: _132  and  _135
REMARK   52  A    between atoms: _135  and  _136
REMARK   53  A    between atoms: _136  and  _137
REMARK   54  A    between atoms: _137  and  _138
REMARK   55  A    between atoms: _138  and  _139
REMARK   56  A    between atoms: _143  and  _145
REMARK   57  A    between atoms: _145  and  _146
REMARK   58  A    between atoms: _145  and  _148
REMARK   59  A    between atoms: _148  and  _149
REMARK   60  A    between atoms: _149  and  _150
REMARK   61  A    between atoms: _152  and  _154
REMARK   62  A    between atoms: _154  and  _155
REMARK   63  A    between atoms: _154  and  _157
REMARK   64  A    between atoms: _157  and  _158
REMARK   65  A    between atoms: _163  and  _164
REMARK   66  A    between atoms: _166  and  _168
REMARK   67  A    between atoms: _168  and  _169
REMARK   68  A    between atoms: _168  and  _171
REMARK   69  A    between atoms: _171  and  _172
REMARK   70  A    between atoms: _175  and  _177
REMARK   71  A    between atoms: _177  and  _178
REMARK   72  A    between atoms: _177  and  _180
REMARK   73  A    between atoms: _180  and  _181
REMARK   74  A    between atoms: _187  and  _189
REMARK   75  A    between atoms: _189  and  _190
REMARK   76  A    between atoms: _189  and  _192
REMARK   77  A    between atoms: _192  and  _193
REMARK   78  A    between atoms: _198  and  _199
REMARK   79  A    between atoms: _201  and  _203
REMARK   80  A    between atoms: _203  and  _204
REMARK   81  A    between atoms: _206  and  _208
REMARK   82  A    between atoms: _208  and  _209
REMARK   83  A    between atoms: _211  and  _213
REMARK   84  A    between atoms: _213  and  _214
REMARK   85  A    between atoms: _213  and  _216
REMARK   86  A    between atoms: _216  and  _217
REMARK   87  A    between atoms: _227  and  _229
REMARK   88  A    between atoms: _229  and  _230
REMARK   89  A    between atoms: _229  and  _232
REMARK   90  A    between atoms: _232  and  _233
REMARK   91  A    between atoms: _238  and  _240
REMARK   92  A    between atoms: _240  and  _241
REMARK   93  A    between atoms: _240  and  _243
REMARK   94  A    between atoms: _243  and  _244
REMARK   95  A    between atoms: _249  and  _250
REMARK   96  A    between atoms: _252  and  _254
REMARK   97  A    between atoms: _254  and  _255
REMARK   98  A    between atoms: _254  and  _257
REMARK   99  A    between atoms: _257  and  _258
REMARK  100  A    between atoms: _263  and  _264
REMARK  101  A    between atoms: _266  and  _268
REMARK  102  A    between atoms: _268  and  _269
REMARK  103  A    between atoms: _268  and  _271
REMARK  104  A    between atoms: _271  and  _272
REMARK  105  A    between atoms: _272  and  _273
REMARK  106  A    between atoms: _273  and  _274
REMARK  107  A    between atoms: _283  and  _285
REMARK  108  A    between atoms: _285  and  _286
REMARK  109  A    between atoms: _285  and  _288
REMARK  110  A    between atoms: _288  and  _289
REMARK  111  A    between atoms: _289  and  _290
REMARK  112  A    between atoms: _290  and  _291
REMARK  113  A    between atoms: _291  and  _292
REMARK  114  A    between atoms: _296  and  _298
REMARK  115  A    between atoms: _298  and  _299
REMARK  116  A    between atoms: _298  and  _301
REMARK  117  A    between atoms: _301  and  _302
REMARK  118  A    between atoms: _302  and  _303
REMARK  119  A    between atoms: _306  and  _308
REMARK  120  A    between atoms: _308  and  _309
REMARK  121  A    between atoms: _308  and  _311
REMARK  122  A    between atoms: _314  and  _316
REMARK  123  A    between atoms: _316  and  _317
REMARK  124  A    between atoms: _316  and  _319
REMARK  125  A    between atoms: _319  and  _320
REMARK  126  A    between atoms: _330  and  _332
REMARK  127  A    between atoms: _332  and  _333
REMARK  128  A    between atoms: _332  and  _335
REMARK  129  A    between atoms: _335  and  _336
REMARK  130  A    between atoms: _336  and  _337
REMARK                            x       y       z     vdW  Elec       q    Type
REMARK                         _______ _______ _______ _____ _____    ______ ____
ROOT
ATOM      1  O   HOH     1       9.781  -0.300  25.055  0.00  0.00    +0.000 OA
ENDROOT
TORSDOF 0
REMARK  Name = ../refined-set-2016/3arw/3arw_pocket.pdb
REMARK  130 active torsions:
REMARK  status: ('A' for Active; 'I' for Inactive)
REMARK    1  A    between atoms: _1  and  _3
REMARK    2  A    between atoms: _3  and  _4
REMARK    3  A    between atoms: _3  and  _6
REMARK    4  A    between atoms: _6  and  _7
REMARK    5  A    between atoms: _17  and  _19
REMARK    6  A    between atoms: _19  and  _20
REMARK    7  A    between atoms: _19  and  _22
REMARK    8  A    between atoms: _22  and  _23
REMARK    9  A    between atoms: _29  and  _31
REMARK   10  A    between atoms: _31  and  _32
REMARK   11  A    between atoms: _31  and  _34
REMARK   12  A    between atoms: _34  and  _35
REMARK   13  A    between atoms: _37  and  _39
REMARK   14  A    between atoms: _39  and  _40
REMARK   15  A    between atoms: _39  and  _42
REMARK   16  A    between atoms: _42  and  _43
REMARK   17  A    between atoms: _45  and  _47
REMARK   18  A    between atoms: _47  and  _48
REMARK   19  A    between atoms: _47  and  _50
REMARK   20  A    between atoms: _53  and  _55
REMARK   21  A    between atoms: _55  and  _56
REMARK   22  A    between atoms: _58  and  _60
REMARK   23  A    between atoms: _60  and  _61
REMARK   24  A    between atoms: _60  and  _63
REMARK   25  A    between atoms: _63  and  _64
REMARK   26  A    between atoms: _74  and  _76
REMARK   27  A    between atoms: _76  and  _77
REMARK   28  A    between atoms: _76  and  _79
REMARK   29  A    between atoms: _79  and  _80
REMARK   30  A    between atoms: _83  and  _85
REMARK   31  A    between atoms: _85  and  _86
REMARK   32  A    between atoms: _85  and  _88
REMARK   33  A    between atoms: _88  and  _89
REMARK   34  A    between atoms: _92  and  _94
REMARK   35  A    between atoms: _94  and  _95
REMARK   36  A    between atoms: _94  and  _97
REMARK   37  A    between atoms: _97  and  _98
REMARK   38  A    between atoms: _98  and  _99
REMARK   39  A    between atoms: _102  and  _104
REMARK   40  A    between atoms: _104  and  _105
REMARK   41  A    between atoms: _104  and  _107
REMARK   42  A    between atoms: _107  and  _108
REMARK   43  A    between atoms: _114  and  _116
REMARK   44  A    between atoms: _116  and  _117
REMARK   45  A    between atoms: _119  and  _121
REMARK   46  A    between atoms: _121  and  _122
REMARK   47  A    between atoms: _124  and  _126
REMARK   48  A    between atoms: _126  and  _127
REMARK   49  A    between atoms: _130  and  _132
REMARK   50  A    between atoms: _132  and  _133
REMARK   51  A    between atoms: _132  and  _135
REMARK   52  A    between atoms: _135  and  _136
REMARK   53  A    between atoms: _136  and  _137
REMARK   54  A    between atoms: _137  and  _138
REMARK   55  A    between atoms: _138  and  _139
REMARK   56  A    between atoms: _143  and  _145
REMARK   57  A    between atoms: _145  and  _146
REMARK   58  A    between atoms: _145  and  _148
REMARK   59  A    between atoms: _148  and  _149
REMARK   60  A    between atoms: _149  and  _150
REMARK   61  A    between atoms: _152  and  _154
REMARK   62  A    between atoms: _154  and  _155
REMARK   63  A    between atoms: _154  and  _157
REMARK   64  A    between atoms: _157  and  _158
REMARK   65  A    between atoms: _163  and  _164
REMARK   66  A    between atoms: _166  and  _168
REMARK   67  A    between atoms: _168  and  _169
REMARK   68  A    between atoms: _168  and  _171
REMARK   69  A    between atoms: _171  and  _172
REMARK   70  A    between atoms: _175  and  _177
REMARK   71  A    between atoms: _177  and  _178
REMARK   72  A    between atoms: _177  and  _180
REMARK   73  A    between atoms: _180  and  _181
REMARK   74  A    between atoms: _187  and  _189
REMARK   75  A    between atoms: _189  and  _190
REMARK   76  A    between atoms: _189  and  _192
REMARK   77  A    between atoms: _192  and  _193
REMARK   78  A    between atoms: _198  and  _199
REMARK   79  A    between atoms: _201  and  _203
REMARK   80  A    between atoms: _203  and  _204
REMARK   81  A    between atoms: _206  and  _208
REMARK   82  A    between atoms: _208  and  _209
REMARK   83  A    between atoms: _211  and  _213
REMARK   84  A    between atoms: _213  and  _214
REMARK   85  A    between atoms: _213  and  _216
REMARK   86  A    between atoms: _216  and  _217
REMARK   87  A    between atoms: _227  and  _229
REMARK   88  A    between atoms: _229  and  _230
REMARK   89  A    between atoms: _229  and  _232
REMARK   90  A    between atoms: _232  and  _233
REMARK   91  A    between atoms: _238  and  _240
REMARK   92  A    between atoms: _240  and  _241
REMARK   93  A    between atoms: _240  and  _243
REMARK   94  A    between atoms: _243  and  _244
REMARK   95  A    between atoms: _249  and  _250
REMARK   96  A    between atoms: _252  and  _254
REMARK   97  A    between atoms: _254  and  _255
REMARK   98  A    between atoms: _254  and  _257
REMARK   99  A    between atoms: _257  and  _258
REMARK  100  A    between atoms: _263  and  _264
REMARK  101  A    between atoms: _266  and  _268
REMARK  102  A    between atoms: _268  and  _269
REMARK  103  A    between atoms: _268  and  _271
REMARK  104  A    between atoms: _271  and  _272
REMARK  105  A    between atoms: _272  and  _273
REMARK  106  A    between atoms: _273  and  _274
REMARK  107  A    between atoms: _283  and  _285
REMARK  108  A    between atoms: _285  and  _286
REMARK  109  A    between atoms: _285  and  _288
REMARK  110  A    between atoms: _288  and  _289
REMARK  111  A    between atoms: _289  and  _290
REMARK  112  A    between atoms: _290  and  _291
REMARK  113  A    between atoms: _291  and  _292
REMARK  114  A    between atoms: _296  and  _298
REMARK  115  A    between atoms: _298  and  _299
REMARK  116  A    between atoms: _298  and  _301
REMARK  117  A    between atoms: _301  and  _302
REMARK  118  A    between atoms: _302  and  _303
REMARK  119  A    between atoms: _306  and  _308
REMARK  120  A    between atoms: _308  and  _309
REMARK  121  A    between atoms: _308  and  _311
REMARK  122  A    between atoms: _314  and  _316
REMARK  123  A    between atoms: _316  and  _317
REMARK  124  A    between atoms: _316  and  _319
REMARK  125  A    between atoms: _319  and  _320
REMARK  126  A    between atoms: _330  and  _332
REMARK  127  A    between atoms: _332  and  _333
REMARK  128  A    between atoms: _332  and  _335
REMARK  129  A    between atoms: _335  and  _336
REMARK  130  A    between atoms: _336  and  _337
REMARK                            x       y       z     vdW  Elec       q    Type
REMARK                         _______ _______ _______ _____ _____    ______ ____
ROOT
ATOM      1  O   HOH     1      21.352 -11.291  26.133  0.00  0.00    +0.000 OA
ENDROOT
TORSDOF 0
REMARK  Name = ../refined-set-2016/3arw/3arw_pocket.pdb
REMARK  130 active torsions:
REMARK  status: ('A' for Active; 'I' for Inactive)
REMARK    1  A    between atoms: _1  and  _3
REMARK    2  A    between atoms: _3  and  _4
REMARK    3  A    between atoms: _3  and  _6
REMARK    4  A    between atoms: _6  and  _7
REMARK    5  A    between atoms: _17  and  _19
REMARK    6  A    between atoms: _19  and  _20
REMARK    7  A    between atoms: _19  and  _22
REMARK    8  A    between atoms: _22  and  _23
REMARK    9  A    between atoms: _29  and  _31
REMARK   10  A    between atoms: _31  and  _32
REMARK   11  A    between atoms: _31  and  _34
REMARK   12  A    between atoms: _34  and  _35
REMARK   13  A    between atoms: _37  and  _39
REMARK   14  A    between atoms: _39  and  _40
REMARK   15  A    between atoms: _39  and  _42
REMARK   16  A    between atoms: _42  and  _43
REMARK   17  A    between atoms: _45  and  _47
REMARK   18  A    between atoms: _47  and  _48
REMARK   19  A    between atoms: _47  and  _50
REMARK   20  A    between atoms: _53  and  _55
REMARK   21  A    between atoms: _55  and  _56
REMARK   22  A    between atoms: _58  and  _60
REMARK   23  A    between atoms: _60  and  _61
REMARK   24  A    between atoms: _60  and  _63
REMARK   25  A    between atoms: _63  and  _64
REMARK   26  A    between atoms: _74  and  _76
REMARK   27  A    between atoms: _76  and  _77
REMARK   28  A    between atoms: _76  and  _79
REMARK   29  A    between atoms: _79  and  _80
REMARK   30  A    between atoms: _83  and  _85
REMARK   31  A    between atoms: _85  and  _86
REMARK   32  A    between atoms: _85  and  _88
REMARK   33  A    between atoms: _88  and  _89
REMARK   34  A    between atoms: _92  and  _94
REMARK   35  A    between atoms: _94  and  _95
REMARK   36  A    between atoms: _94  and  _97
REMARK   37  A    between atoms: _97  and  _98
REMARK   38  A    between atoms: _98  and  _99
REMARK   39  A    between atoms: _102  and  _104
REMARK   40  A    between atoms: _104  and  _105
REMARK   41  A    between atoms: _104  and  _107
REMARK   42  A    between atoms: _107  and  _108
REMARK   43  A    between atoms: _114  and  _116
REMARK   44  A    between atoms: _116  and  _117
REMARK   45  A    between atoms: _119  and  _121
REMARK   46  A    between atoms: _121  and  _122
REMARK   47  A    between atoms: _124  and  _126
REMARK   48  A    between atoms: _126  and  _127
REMARK   49  A    between atoms: _130  and  _132
REMARK   50  A    between atoms: _132  and  _133
REMARK   51  A    between atoms: _132  and  _135
REMARK   52  A    between atoms: _135  and  _136
REMARK   53  A    between atoms: _136  and  _137
REMARK   54  A    between atoms: _137  and  _138
REMARK   55  A    between atoms: _138  and  _139
REMARK   56  A    between atoms: _143  and  _145
REMARK   57  A    between atoms: _145  and  _146
REMARK   58  A    between atoms: _145  and  _148
REMARK   59  A    between atoms: _148  and  _149
REMARK   60  A    between atoms: _149  and  _150
REMARK   61  A    between atoms: _152  and  _154
REMARK   62  A    between atoms: _154  and  _155
REMARK   63  A    between atoms: _154  and  _157
REMARK   64  A    between atoms: _157  and  _158
REMARK   65  A    between atoms: _163  and  _164
REMARK   66  A    between atoms: _166  and  _168
REMARK   67  A    between atoms: _168  and  _169
REMARK   68  A    between atoms: _168  and  _171
REMARK   69  A    between atoms: _171  and  _172
REMARK   70  A    between atoms: _175  and  _177
REMARK   71  A    between atoms: _177  and  _178
REMARK   72  A    between atoms: _177  and  _180
REMARK   73  A    between atoms: _180  and  _181
REMARK   74  A    between atoms: _187  and  _189
REMARK   75  A    between atoms: _189  and  _190
REMARK   76  A    between atoms: _189  and  _192
REMARK   77  A    between atoms: _192  and  _193
REMARK   78  A    between atoms: _198  and  _199
REMARK   79  A    between atoms: _201  and  _203
REMARK   80  A    between atoms: _203  and  _204
REMARK   81  A    between atoms: _206  and  _208
REMARK   82  A    between atoms: _208  and  _209
REMARK   83  A    between atoms: _211  and  _213
REMARK   84  A    between atoms: _213  and  _214
REMARK   85  A    between atoms: _213  and  _216
REMARK   86  A    between atoms: _216  and  _217
REMARK   87  A    between atoms: _227  and  _229
REMARK   88  A    between atoms: _229  and  _230
REMARK   89  A    between atoms: _229  and  _232
REMARK   90  A    between atoms: _232  and  _233
REMARK   91  A    between atoms: _238  and  _240
REMARK   92  A    between atoms: _240  and  _241
REMARK   93  A    between atoms: _240  and  _243
REMARK   94  A    between atoms: _243  and  _244
REMARK   95  A    between atoms: _249  and  _250
REMARK   96  A    between atoms: _252  and  _254
REMARK   97  A    between atoms: _254  and  _255
REMARK   98  A    between atoms: _254  and  _257
REMARK   99  A    between atoms: _257  and  _258
REMARK  100  A    between atoms: _263  and  _264
REMARK  101  A    between atoms: _266  and  _268
REMARK  102  A    between atoms: _268  and  _269
REMARK  103  A    between atoms: _268  and  _271
REMARK  104  A    between atoms: _271  and  _272
REMARK  105  A    between atoms: _272  and  _273
REMARK  106  A    between atoms: _273  and  _274
REMARK  107  A    between atoms: _283  and  _285
REMARK  108  A    between atoms: _285  and  _286
REMARK  109  A    between atoms: _285  and  _288
REMARK  110  A    between atoms: _288  and  _289
REMARK  111  A    between atoms: _289  and  _290
REMARK  112  A    between atoms: _290  and  _291
REMARK  113  A    between atoms: _291  and  _292
REMARK  114  A    between atoms: _296  and  _298
REMARK  115  A    between atoms: _298  and  _299
REMARK  116  A    between atoms: _298  and  _301
REMARK  117  A    between atoms: _301  and  _302
REMARK  118  A    between atoms: _302  and  _303
REMARK  119  A    between atoms: _306  and  _308
REMARK  120  A    between atoms: _308  and  _309
REMARK  121  A    between atoms: _308  and  _311
REMARK  122  A    between atoms: _314  and  _316
REMARK  123  A    between atoms: _316  and  _317
REMARK  124  A    between atoms: _316  and  _319
REMARK  125  A    between atoms: _319  and  _320
REMARK  126  A    between atoms: _330  and  _332
REMARK  127  A    between atoms: _332  and  _333
REMARK  128  A    between atoms: _332  and  _335
REMARK  129  A    between atoms: _335  and  _336
REMARK  130  A    between atoms: _336  and  _337
REMARK                            x       y       z     vdW  Elec       q    Type
REMARK                         _______ _______ _______ _____ _____    ______ ____
ROOT
ATOM      1  O   HOH     1      26.927 -10.412  19.087  0.00  0.00    +0.000 OA
ENDROOT
TORSDOF 0
REMARK  Name = ../refined-set-2016/3arw/3arw_pocket.pdb
REMARK  130 active torsions:
REMARK  status: ('A' for Active; 'I' for Inactive)
REMARK    1  A    between atoms: _1  and  _3
REMARK    2  A    between atoms: _3  and  _4
REMARK    3  A    between atoms: _3  and  _6
REMARK    4  A    between atoms: _6  and  _7
REMARK    5  A    between atoms: _17  and  _19
REMARK    6  A    between atoms: _19  and  _20
REMARK    7  A    between atoms: _19  and  _22
REMARK    8  A    between atoms: _22  and  _23
REMARK    9  A    between atoms: _29  and  _31
REMARK   10  A    between atoms: _31  and  _32
REMARK   11  A    between atoms: _31  and  _34
REMARK   12  A    between atoms: _34  and  _35
REMARK   13  A    between atoms: _37  and  _39
REMARK   14  A    between atoms: _39  and  _40
REMARK   15  A    between atoms: _39  and  _42
REMARK   16  A    between atoms: _42  and  _43
REMARK   17  A    between atoms: _45  and  _47
REMARK   18  A    between atoms: _47  and  _48
REMARK   19  A    between atoms: _47  and  _50
REMARK   20  A    between atoms: _53  and  _55
REMARK   21  A    between atoms: _55  and  _56
REMARK   22  A    between atoms: _58  and  _60
REMARK   23  A    between atoms: _60  and  _61
REMARK   24  A    between atoms: _60  and  _63
REMARK   25  A    between atoms: _63  and  _64
REMARK   26  A    between atoms: _74  and  _76
REMARK   27  A    between atoms: _76  and  _77
REMARK   28  A    between atoms: _76  and  _79
REMARK   29  A    between atoms: _79  and  _80
REMARK   30  A    between atoms: _83  and  _85
REMARK   31  A    between atoms: _85  and  _86
REMARK   32  A    between atoms: _85  and  _88
REMARK   33  A    between atoms: _88  and  _89
REMARK   34  A    between atoms: _92  and  _94
REMARK   35  A    between atoms: _94  and  _95
REMARK   36  A    between atoms: _94  and  _97
REMARK   37  A    between atoms: _97  and  _98
REMARK   38  A    between atoms: _98  and  _99
REMARK   39  A    between atoms: _102  and  _104
REMARK   40  A    between atoms: _104  and  _105
REMARK   41  A    between atoms: _104  and  _107
REMARK   42  A    between atoms: _107  and  _108
REMARK   43  A    between atoms: _114  and  _116
REMARK   44  A    between atoms: _116  and  _117
REMARK   45  A    between atoms: _119  and  _121
REMARK   46  A    between atoms: _121  and  _122
REMARK   47  A    between atoms: _124  and  _126
REMARK   48  A    between atoms: _126  and  _127
REMARK   49  A    between atoms: _130  and  _132
REMARK   50  A    between atoms: _132  and  _133
REMARK   51  A    between atoms: _132  and  _135
REMARK   52  A    between atoms: _135  and  _136
REMARK   53  A    between atoms: _136  and  _137
REMARK   54  A    between atoms: _137  and  _138
REMARK   55  A    between atoms: _138  and  _139
REMARK   56  A    between atoms: _143  and  _145
REMARK   57  A    between atoms: _145  and  _146
REMARK   58  A    between atoms: _145  and  _148
REMARK   59  A    between atoms: _148  and  _149
REMARK   60  A    between atoms: _149  and  _150
REMARK   61  A    between atoms: _152  and  _154
REMARK   62  A    between atoms: _154  and  _155
REMARK   63  A    between atoms: _154  and  _157
REMARK   64  A    between atoms: _157  and  _158
REMARK   65  A    between atoms: _163  and  _164
REMARK   66  A    between atoms: _166  and  _168
REMARK   67  A    between atoms: _168  and  _169
REMARK   68  A    between atoms: _168  and  _171
REMARK   69  A    between atoms: _171  and  _172
REMARK   70  A    between atoms: _175  and  _177
REMARK   71  A    between atoms: _177  and  _178
REMARK   72  A    between atoms: _177  and  _180
REMARK   73  A    between atoms: _180  and  _181
REMARK   74  A    between atoms: _187  and  _189
REMARK   75  A    between atoms: _189  and  _190
REMARK   76  A    between atoms: _189  and  _192
REMARK   77  A    between atoms: _192  and  _193
REMARK   78  A    between atoms: _198  and  _199
REMARK   79  A    between atoms: _201  and  _203
REMARK   80  A    between atoms: _203  and  _204
REMARK   81  A    between atoms: _206  and  _208
REMARK   82  A    between atoms: _208  and  _209
REMARK   83  A    between atoms: _211  and  _213
REMARK   84  A    between atoms: _213  and  _214
REMARK   85  A    between atoms: _213  and  _216
REMARK   86  A    between atoms: _216  and  _217
REMARK   87  A    between atoms: _227  and  _229
REMARK   88  A    between atoms: _229  and  _230
REMARK   89  A    between atoms: _229  and  _232
REMARK   90  A    between atoms: _232  and  _233
REMARK   91  A    between atoms: _238  and  _240
REMARK   92  A    between atoms: _240  and  _241
REMARK   93  A    between atoms: _240  and  _243
REMARK   94  A    between atoms: _243  and  _244
REMARK   95  A    between atoms: _249  and  _250
REMARK   96  A    between atoms: _252  and  _254
REMARK   97  A    between atoms: _254  and  _255
REMARK   98  A    between atoms: _254  and  _257
REMARK   99  A    between atoms: _257  and  _258
REMARK  100  A    between atoms: _263  and  _264
REMARK  101  A    between atoms: _266  and  _268
REMARK  102  A    between atoms: _268  and  _269
REMARK  103  A    between atoms: _268  and  _271
REMARK  104  A    between atoms: _271  and  _272
REMARK  105  A    between atoms: _272  and  _273
REMARK  106  A    between atoms: _273  and  _274
REMARK  107  A    between atoms: _283  and  _285
REMARK  108  A    between atoms: _285  and  _286
REMARK  109  A    between atoms: _285  and  _288
REMARK  110  A    between atoms: _288  and  _289
REMARK  111  A    between atoms: _289  and  _290
REMARK  112  A    between atoms: _290  and  _291
REMARK  113  A    between atoms: _291  and  _292
REMARK  114  A    between atoms: _296  and  _298
REMARK  115  A    between atoms: _298  and  _299
REMARK  116  A    between atoms: _298  and  _301
REMARK  117  A    between atoms: _301  and  _302
REMARK  118  A    between atoms: _302  and  _303
REMARK  119  A    between atoms: _306  and  _308
REMARK  120  A    between atoms: _308  and  _309
REMARK  121  A    between atoms: _308  and  _311
REMARK  122  A    between atoms: _314  and  _316
REMARK  123  A    between atoms: _316  and  _317
REMARK  124  A    between atoms: _316  and  _319
REMARK  125  A    between atoms: _319  and  _320
REMARK  126  A    between atoms: _330  and  _332
REMARK  127  A    between atoms: _332  and  _333
REMARK  128  A    between atoms: _332  and  _335
REMARK  129  A    between atoms: _335  and  _336
REMARK  130  A    between atoms: _336  and  _337
REMARK                            x       y       z     vdW  Elec       q    Type
REMARK                         _______ _______ _______ _____ _____    ______ ____
ROOT
ATOM      1  O   HOH     1      17.522 -10.283  28.322  0.00  0.00    +0.000 OA
ENDROOT
TORSDOF 0
REMARK  Name = ../refined-set-2016/3arw/3arw_pocket.pdb
REMARK  130 active torsions:
REMARK  status: ('A' for Active; 'I' for Inactive)
REMARK    1  A    between atoms: _1  and  _3
REMARK    2  A    between atoms: _3  and  _4
REMARK    3  A    between atoms: _3  and  _6
REMARK    4  A    between atoms: _6  and  _7
REMARK    5  A    between atoms: _17  and  _19
REMARK    6  A    between atoms: _19  and  _20
REMARK    7  A    between atoms: _19  and  _22
REMARK    8  A    between atoms: _22  and  _23
REMARK    9  A    between atoms: _29  and  _31
REMARK   10  A    between atoms: _31  and  _32
REMARK   11  A    between atoms: _31  and  _34
REMARK   12  A    between atoms: _34  and  _35
REMARK   13  A    between atoms: _37  and  _39
REMARK   14  A    between atoms: _39  and  _40
REMARK   15  A    between atoms: _39  and  _42
REMARK   16  A    between atoms: _42  and  _43
REMARK   17  A    between atoms: _45  and  _47
REMARK   18  A    between atoms: _47  and  _48
REMARK   19  A    between atoms: _47  and  _50
REMARK   20  A    between atoms: _53  and  _55
REMARK   21  A    between atoms: _55  and  _56
REMARK   22  A    between atoms: _58  and  _60
REMARK   23  A    between atoms: _60  and  _61
REMARK   24  A    between atoms: _60  and  _63
REMARK   25  A    between atoms: _63  and  _64
REMARK   26  A    between atoms: _74  and  _76
REMARK   27  A    between atoms: _76  and  _77
REMARK   28  A    between atoms: _76  and  _79
REMARK   29  A    between atoms: _79  and  _80
REMARK   30  A    between atoms: _83  and  _85
REMARK   31  A    between atoms: _85  and  _86
REMARK   32  A    between atoms: _85  and  _88
REMARK   33  A    between atoms: _88  and  _89
REMARK   34  A    between atoms: _92  and  _94
REMARK   35  A    between atoms: _94  and  _95
REMARK   36  A    between atoms: _94  and  _97
REMARK   37  A    between atoms: _97  and  _98
REMARK   38  A    between atoms: _98  and  _99
REMARK   39  A    between atoms: _102  and  _104
REMARK   40  A    between atoms: _104  and  _105
REMARK   41  A    between atoms: _104  and  _107
REMARK   42  A    between atoms: _107  and  _108
REMARK   43  A    between atoms: _114  and  _116
REMARK   44  A    between atoms: _116  and  _117
REMARK   45  A    between atoms: _119  and  _121
REMARK   46  A    between atoms: _121  and  _122
REMARK   47  A    between atoms: _124  and  _126
REMARK   48  A    between atoms: _126  and  _127
REMARK   49  A    between atoms: _130  and  _132
REMARK   50  A    between atoms: _132  and  _133
REMARK   51  A    between atoms: _132  and  _135
REMARK   52  A    between atoms: _135  and  _136
REMARK   53  A    between atoms: _136  and  _137
REMARK   54  A    between atoms: _137  and  _138
REMARK   55  A    between atoms: _138  and  _139
REMARK   56  A    between atoms: _143  and  _145
REMARK   57  A    between atoms: _145  and  _146
REMARK   58  A    between atoms: _145  and  _148
REMARK   59  A    between atoms: _148  and  _149
REMARK   60  A    between atoms: _149  and  _150
REMARK   61  A    between atoms: _152  and  _154
REMARK   62  A    between atoms: _154  and  _155
REMARK   63  A    between atoms: _154  and  _157
REMARK   64  A    between atoms: _157  and  _158
REMARK   65  A    between atoms: _163  and  _164
REMARK   66  A    between atoms: _166  and  _168
REMARK   67  A    between atoms: _168  and  _169
REMARK   68  A    between atoms: _168  and  _171
REMARK   69  A    between atoms: _171  and  _172
REMARK   70  A    between atoms: _175  and  _177
REMARK   71  A    between atoms: _177  and  _178
REMARK   72  A    between atoms: _177  and  _180
REMARK   73  A    between atoms: _180  and  _181
REMARK   74  A    between atoms: _187  and  _189
REMARK   75  A    between atoms: _189  and  _190
REMARK   76  A    between atoms: _189  and  _192
REMARK   77  A    between atoms: _192  and  _193
REMARK   78  A    between atoms: _198  and  _199
REMARK   79  A    between atoms: _201  and  _203
REMARK   80  A    between atoms: _203  and  _204
REMARK   81  A    between atoms: _206  and  _208
REMARK   82  A    between atoms: _208  and  _209
REMARK   83  A    between atoms: _211  and  _213
REMARK   84  A    between atoms: _213  and  _214
REMARK   85  A    between atoms: _213  and  _216
REMARK   86  A    between atoms: _216  and  _217
REMARK   87  A    between atoms: _227  and  _229
REMARK   88  A    between atoms: _229  and  _230
REMARK   89  A    between atoms: _229  and  _232
REMARK   90  A    between atoms: _232  and  _233
REMARK   91  A    between atoms: _238  and  _240
REMARK   92  A    between atoms: _240  and  _241
REMARK   93  A    between atoms: _240  and  _243
REMARK   94  A    between atoms: _243  and  _244
REMARK   95  A    between atoms: _249  and  _250
REMARK   96  A    between atoms: _252  and  _254
REMARK   97  A    between atoms: _254  and  _255
REMARK   98  A    between atoms: _254  and  _257
REMARK   99  A    between atoms: _257  and  _258
REMARK  100  A    between atoms: _263  and  _264
REMARK  101  A    between atoms: _266  and  _268
REMARK  102  A    between atoms: _268  and  _269
REMARK  103  A    between atoms: _268  and  _271
REMARK  104  A    between atoms: _271  and  _272
REMARK  105  A    between atoms: _272  and  _273
REMARK  106  A    between atoms: _273  and  _274
REMARK  107  A    between atoms: _283  and  _285
REMARK  108  A    between atoms: _285  and  _286
REMARK  109  A    between atoms: _285  and  _288
REMARK  110  A    between atoms: _288  and  _289
REMARK  111  A    between atoms: _289  and  _290
REMARK  112  A    between atoms: _290  and  _291
REMARK  113  A    between atoms: _291  and  _292
REMARK  114  A    between atoms: _296  and  _298
REMARK  115  A    between atoms: _298  and  _299
REMARK  116  A    between atoms: _298  and  _301
REMARK  117  A    between atoms: _301  and  _302
REMARK  118  A    between atoms: _302  and  _303
REMARK  119  A    between atoms: _306  and  _308
REMARK  120  A    between atoms: _308  and  _309
REMARK  121  A    between atoms: _308  and  _311
REMARK  122  A    between atoms: _314  and  _316
REMARK  123  A    between atoms: _316  and  _317
REMARK  124  A    between atoms: _316  and  _319
REMARK  125  A    between atoms: _319  and  _320
REMARK  126  A    between atoms: _330  and  _332
REMARK  127  A    between atoms: _332  and  _333
REMARK  128  A    between atoms: _332  and  _335
REMARK  129  A    between atoms: _335  and  _336
REMARK  130  A    between atoms: _336  and  _337
REMARK                            x       y       z     vdW  Elec       q    Type
REMARK                         _______ _______ _______ _____ _____    ______ ____
ROOT
ATOM      1  O   HOH     1      20.157 -16.100  19.281  0.00  0.00    +0.000 OA
ENDROOT
TORSDOF 0
REMARK  Name = ../refined-set-2016/3arw/3arw_pocket.pdb
REMARK  130 active torsions:
REMARK  status: ('A' for Active; 'I' for Inactive)
REMARK    1  A    between atoms: _1  and  _3
REMARK    2  A    between atoms: _3  and  _4
REMARK    3  A    between atoms: _3  and  _6
REMARK    4  A    between atoms: _6  and  _7
REMARK    5  A    between atoms: _17  and  _19
REMARK    6  A    between atoms: _19  and  _20
REMARK    7  A    between atoms: _19  and  _22
REMARK    8  A    between atoms: _22  and  _23
REMARK    9  A    between atoms: _29  and  _31
REMARK   10  A    between atoms: _31  and  _32
REMARK   11  A    between atoms: _31  and  _34
REMARK   12  A    between atoms: _34  and  _35
REMARK   13  A    between atoms: _37  and  _39
REMARK   14  A    between atoms: _39  and  _40
REMARK   15  A    between atoms: _39  and  _42
REMARK   16  A    between atoms: _42  and  _43
REMARK   17  A    between atoms: _45  and  _47
REMARK   18  A    between atoms: _47  and  _48
REMARK   19  A    between atoms: _47  and  _50
REMARK   20  A    between atoms: _53  and  _55
REMARK   21  A    between atoms: _55  and  _56
REMARK   22  A    between atoms: _58  and  _60
REMARK   23  A    between atoms: _60  and  _61
REMARK   24  A    between atoms: _60  and  _63
REMARK   25  A    between atoms: _63  and  _64
REMARK   26  A    between atoms: _74  and  _76
REMARK   27  A    between atoms: _76  and  _77
REMARK   28  A    between atoms: _76  and  _79
REMARK   29  A    between atoms: _79  and  _80
REMARK   30  A    between atoms: _83  and  _85
REMARK   31  A    between atoms: _85  and  _86
REMARK   32  A    between atoms: _85  and  _88
REMARK   33  A    between atoms: _88  and  _89
REMARK   34  A    between atoms: _92  and  _94
REMARK   35  A    between atoms: _94  and  _95
REMARK   36  A    between atoms: _94  and  _97
REMARK   37  A    between atoms: _97  and  _98
REMARK   38  A    between atoms: _98  and  _99
REMARK   39  A    between atoms: _102  and  _104
REMARK   40  A    between atoms: _104  and  _105
REMARK   41  A    between atoms: _104  and  _107
REMARK   42  A    between atoms: _107  and  _108
REMARK   43  A    between atoms: _114  and  _116
REMARK   44  A    between atoms: _116  and  _117
REMARK   45  A    between atoms: _119  and  _121
REMARK   46  A    between atoms: _121  and  _122
REMARK   47  A    between atoms: _124  and  _126
REMARK   48  A    between atoms: _126  and  _127
REMARK   49  A    between atoms: _130  and  _132
REMARK   50  A    between atoms: _132  and  _133
REMARK   51  A    between atoms: _132  and  _135
REMARK   52  A    between atoms: _135  and  _136
REMARK   53  A    between atoms: _136  and  _137
REMARK   54  A    between atoms: _137  and  _138
REMARK   55  A    between atoms: _138  and  _139
REMARK   56  A    between atoms: _143  and  _145
REMARK   57  A    between atoms: _145  and  _146
REMARK   58  A    between atoms: _145  and  _148
REMARK   59  A    between atoms: _148  and  _149
REMARK   60  A    between atoms: _149  and  _150
REMARK   61  A    between atoms: _152  and  _154
REMARK   62  A    between atoms: _154  and  _155
REMARK   63  A    between atoms: _154  and  _157
REMARK   64  A    between atoms: _157  and  _158
REMARK   65  A    between atoms: _163  and  _164
REMARK   66  A    between atoms: _166  and  _168
REMARK   67  A    between atoms: _168  and  _169
REMARK   68  A    between atoms: _168  and  _171
REMARK   69  A    between atoms: _171  and  _172
REMARK   70  A    between atoms: _175  and  _177
REMARK   71  A    between atoms: _177  and  _178
REMARK   72  A    between atoms: _177  and  _180
REMARK   73  A    between atoms: _180  and  _181
REMARK   74  A    between atoms: _187  and  _189
REMARK   75  A    between atoms: _189  and  _190
REMARK   76  A    between atoms: _189  and  _192
REMARK   77  A    between atoms: _192  and  _193
REMARK   78  A    between atoms: _198  and  _199
REMARK   79  A    between atoms: _201  and  _203
REMARK   80  A    between atoms: _203  and  _204
REMARK   81  A    between atoms: _206  and  _208
REMARK   82  A    between atoms: _208  and  _209
REMARK   83  A    between atoms: _211  and  _213
REMARK   84  A    between atoms: _213  and  _214
REMARK   85  A    between atoms: _213  and  _216
REMARK   86  A    between atoms: _216  and  _217
REMARK   87  A    between atoms: _227  and  _229
REMARK   88  A    between atoms: _229  and  _230
REMARK   89  A    between atoms: _229  and  _232
REMARK   90  A    between atoms: _232  and  _233
REMARK   91  A    between atoms: _238  and  _240
REMARK   92  A    between atoms: _240  and  _241
REMARK   93  A    between atoms: _240  and  _243
REMARK   94  A    between atoms: _243  and  _244
REMARK   95  A    between atoms: _249  and  _250
REMARK   96  A    between atoms: _252  and  _254
REMARK   97  A    between atoms: _254  and  _255
REMARK   98  A    between atoms: _254  and  _257
REMARK   99  A    between atoms: _257  and  _258
REMARK  100  A    between atoms: _263  and  _264
REMARK  101  A    between atoms: _266  and  _268
REMARK  102  A    between atoms: _268  and  _269
REMARK  103  A    between atoms: _268  and  _271
REMARK  104  A    between atoms: _271  and  _272
REMARK  105  A    between atoms: _272  and  _273
REMARK  106  A    between atoms: _273  and  _274
REMARK  107  A    between atoms: _283  and  _285
REMARK  108  A    between atoms: _285  and  _286
REMARK  109  A    between atoms: _285  and  _288
REMARK  110  A    between atoms: _288  and  _289
REMARK  111  A    between atoms: _289  and  _290
REMARK  112  A    between atoms: _290  and  _291
REMARK  113  A    between atoms: _291  and  _292
REMARK  114  A    between atoms: _296  and  _298
REMARK  115  A    between atoms: _298  and  _299
REMARK  116  A    between atoms: _298  and  _301
REMARK  117  A    between atoms: _301  and  _302
REMARK  118  A    between atoms: _302  and  _303
REMARK  119  A    between atoms: _306  and  _308
REMARK  120  A    between atoms: _308  and  _309
REMARK  121  A    between atoms: _308  and  _311
REMARK  122  A    between atoms: _314  and  _316
REMARK  123  A    between atoms: _316  and  _317
REMARK  124  A    between atoms: _316  and  _319
REMARK  125  A    between atoms: _319  and  _320
REMARK  126  A    between atoms: _330  and  _332
REMARK  127  A    between atoms: _332  and  _333
REMARK  128  A    between atoms: _332  and  _335
REMARK  129  A    between atoms: _335  and  _336
REMARK  130  A    between atoms: _336  and  _337
REMARK                            x       y       z     vdW  Elec       q    Type
REMARK                         _______ _______ _______ _____ _____    ______ ____
ROOT
ATOM      1  O   HOH     1      19.725  -1.931  26.273  0.00  0.00    +0.000 OA
ENDROOT
TORSDOF 0
REMARK  Name = ../refined-set-2016/3arw/3arw_pocket.pdb
REMARK  130 active torsions:
REMARK  status: ('A' for Active; 'I' for Inactive)
REMARK    1  A    between atoms: _1  and  _3
REMARK    2  A    between atoms: _3  and  _4
REMARK    3  A    between atoms: _3  and  _6
REMARK    4  A    between atoms: _6  and  _7
REMARK    5  A    between atoms: _17  and  _19
REMARK    6  A    between atoms: _19  and  _20
REMARK    7  A    between atoms: _19  and  _22
REMARK    8  A    between atoms: _22  and  _23
REMARK    9  A    between atoms: _29  and  _31
REMARK   10  A    between atoms: _31  and  _32
REMARK   11  A    between atoms: _31  and  _34
REMARK   12  A    between atoms: _34  and  _35
REMARK   13  A    between atoms: _37  and  _39
REMARK   14  A    between atoms: _39  and  _40
REMARK   15  A    between atoms: _39  and  _42
REMARK   16  A    between atoms: _42  and  _43
REMARK   17  A    between atoms: _45  and  _47
REMARK   18  A    between atoms: _47  and  _48
REMARK   19  A    between atoms: _47  and  _50
REMARK   20  A    between atoms: _53  and  _55
REMARK   21  A    between atoms: _55  and  _56
REMARK   22  A    between atoms: _58  and  _60
REMARK   23  A    between atoms: _60  and  _61
REMARK   24  A    between atoms: _60  and  _63
REMARK   25  A    between atoms: _63  and  _64
REMARK   26  A    between atoms: _74  and  _76
REMARK   27  A    between atoms: _76  and  _77
REMARK   28  A    between atoms: _76  and  _79
REMARK   29  A    between atoms: _79  and  _80
REMARK   30  A    between atoms: _83  and  _85
REMARK   31  A    between atoms: _85  and  _86
REMARK   32  A    between atoms: _85  and  _88
REMARK   33  A    between atoms: _88  and  _89
REMARK   34  A    between atoms: _92  and  _94
REMARK   35  A    between atoms: _94  and  _95
REMARK   36  A    between atoms: _94  and  _97
REMARK   37  A    between atoms: _97  and  _98
REMARK   38  A    between atoms: _98  and  _99
REMARK   39  A    between atoms: _102  and  _104
REMARK   40  A    between atoms: _104  and  _105
REMARK   41  A    between atoms: _104  and  _107
REMARK   42  A    between atoms: _107  and  _108
REMARK   43  A    between atoms: _114  and  _116
REMARK   44  A    between atoms: _116  and  _117
REMARK   45  A    between atoms: _119  and  _121
REMARK   46  A    between atoms: _121  and  _122
REMARK   47  A    between atoms: _124  and  _126
REMARK   48  A    between atoms: _126  and  _127
REMARK   49  A    between atoms: _130  and  _132
REMARK   50  A    between atoms: _132  and  _133
REMARK   51  A    between atoms: _132  and  _135
REMARK   52  A    between atoms: _135  and  _136
REMARK   53  A    between atoms: _136  and  _137
REMARK   54  A    between atoms: _137  and  _138
REMARK   55  A    between atoms: _138  and  _139
REMARK   56  A    between atoms: _143  and  _145
REMARK   57  A    between atoms: _145  and  _146
REMARK   58  A    between atoms: _145  and  _148
REMARK   59  A    between atoms: _148  and  _149
REMARK   60  A    between atoms: _149  and  _150
REMARK   61  A    between atoms: _152  and  _154
REMARK   62  A    between atoms: _154  and  _155
REMARK   63  A    between atoms: _154  and  _157
REMARK   64  A    between atoms: _157  and  _158
REMARK   65  A    between atoms: _163  and  _164
REMARK   66  A    between atoms: _166  and  _168
REMARK   67  A    between atoms: _168  and  _169
REMARK   68  A    between atoms: _168  and  _171
REMARK   69  A    between atoms: _171  and  _172
REMARK   70  A    between atoms: _175  and  _177
REMARK   71  A    between atoms: _177  and  _178
REMARK   72  A    between atoms: _177  and  _180
REMARK   73  A    between atoms: _180  and  _181
REMARK   74  A    between atoms: _187  and  _189
REMARK   75  A    between atoms: _189  and  _190
REMARK   76  A    between atoms: _189  and  _192
REMARK   77  A    between atoms: _192  and  _193
REMARK   78  A    between atoms: _198  and  _199
REMARK   79  A    between atoms: _201  and  _203
REMARK   80  A    between atoms: _203  and  _204
REMARK   81  A    between atoms: _206  and  _208
REMARK   82  A    between atoms: _208  and  _209
REMARK   83  A    between atoms: _211  and  _213
REMARK   84  A    between atoms: _213  and  _214
REMARK   85  A    between atoms: _213  and  _216
REMARK   86  A    between atoms: _216  and  _217
REMARK   87  A    between atoms: _227  and  _229
REMARK   88  A    between atoms: _229  and  _230
REMARK   89  A    between atoms: _229  and  _232
REMARK   90  A    between atoms: _232  and  _233
REMARK   91  A    between atoms: _238  and  _240
REMARK   92  A    between atoms: _240  and  _241
REMARK   93  A    between atoms: _240  and  _243
REMARK   94  A    between atoms: _243  and  _244
REMARK   95  A    between atoms: _249  and  _250
REMARK   96  A    between atoms: _252  and  _254
REMARK   97  A    between atoms: _254  and  _255
REMARK   98  A    between atoms: _254  and  _257
REMARK   99  A    between atoms: _257  and  _258
REMARK  100  A    between atoms: _263  and  _264
REMARK  101  A    between atoms: _266  and  _268
REMARK  102  A    between atoms: _268  and  _269
REMARK  103  A    between atoms: _268  and  _271
REMARK  104  A    between atoms: _271  and  _272
REMARK  105  A    between atoms: _272  and  _273
REMARK  106  A    between atoms: _273  and  _274
REMARK  107  A    between atoms: _283  and  _285
REMARK  108  A    between atoms: _285  and  _286
REMARK  109  A    between atoms: _285  and  _288
REMARK  110  A    between atoms: _288  and  _289
REMARK  111  A    between atoms: _289  and  _290
REMARK  112  A    between atoms: _290  and  _291
REMARK  113  A    between atoms: _291  and  _292
REMARK  114  A    between atoms: _296  and  _298
REMARK  115  A    between atoms: _298  and  _299
REMARK  116  A    between atoms: _298  and  _301
REMARK  117  A    between atoms: _301  and  _302
REMARK  118  A    between atoms: _302  and  _303
REMARK  119  A    between atoms: _306  and  _308
REMARK  120  A    between atoms: _308  and  _309
REMARK  121  A    between atoms: _308  and  _311
REMARK  122  A    between atoms: _314  and  _316
REMARK  123  A    between atoms: _316  and  _317
REMARK  124  A    between atoms: _316  and  _319
REMARK  125  A    between atoms: _319  and  _320
REMARK  126  A    between atoms: _330  and  _332
REMARK  127  A    between atoms: _332  and  _333
REMARK  128  A    between atoms: _332  and  _335
REMARK  129  A    between atoms: _335  and  _336
REMARK  130  A    between atoms: _336  and  _337
REMARK                            x       y       z     vdW  Elec       q    Type
REMARK                         _______ _______ _______ _____ _____    ______ ____
ROOT
ATOM      1  O   HOH     1       9.788  -9.714  26.840  0.00  0.00    +0.000 OA
ENDROOT
TORSDOF 0
REMARK  Name = ../refined-set-2016/3arw/3arw_pocket.pdb
REMARK  130 active torsions:
REMARK  status: ('A' for Active; 'I' for Inactive)
REMARK    1  A    between atoms: _1  and  _3
REMARK    2  A    between atoms: _3  and  _4
REMARK    3  A    between atoms: _3  and  _6
REMARK    4  A    between atoms: _6  and  _7
REMARK    5  A    between atoms: _17  and  _19
REMARK    6  A    between atoms: _19  and  _20
REMARK    7  A    between atoms: _19  and  _22
REMARK    8  A    between atoms: _22  and  _23
REMARK    9  A    between atoms: _29  and  _31
REMARK   10  A    between atoms: _31  and  _32
REMARK   11  A    between atoms: _31  and  _34
REMARK   12  A    between atoms: _34  and  _35
REMARK   13  A    between atoms: _37  and  _39
REMARK   14  A    between atoms: _39  and  _40
REMARK   15  A    between atoms: _39  and  _42
REMARK   16  A    between atoms: _42  and  _43
REMARK   17  A    between atoms: _45  and  _47
REMARK   18  A    between atoms: _47  and  _48
REMARK   19  A    between atoms: _47  and  _50
REMARK   20  A    between atoms: _53  and  _55
REMARK   21  A    between atoms: _55  and  _56
REMARK   22  A    between atoms: _58  and  _60
REMARK   23  A    between atoms: _60  and  _61
REMARK   24  A    between atoms: _60  and  _63
REMARK   25  A    between atoms: _63  and  _64
REMARK   26  A    between atoms: _74  and  _76
REMARK   27  A    between atoms: _76  and  _77
REMARK   28  A    between atoms: _76  and  _79
REMARK   29  A    between atoms: _79  and  _80
REMARK   30  A    between atoms: _83  and  _85
REMARK   31  A    between atoms: _85  and  _86
REMARK   32  A    between atoms: _85  and  _88
REMARK   33  A    between atoms: _88  and  _89
REMARK   34  A    between atoms: _92  and  _94
REMARK   35  A    between atoms: _94  and  _95
REMARK   36  A    between atoms: _94  and  _97
REMARK   37  A    between atoms: _97  and  _98
REMARK   38  A    between atoms: _98  and  _99
REMARK   39  A    between atoms: _102  and  _104
REMARK   40  A    between atoms: _104  and  _105
REMARK   41  A    between atoms: _104  and  _107
REMARK   42  A    between atoms: _107  and  _108
REMARK   43  A    between atoms: _114  and  _116
REMARK   44  A    between atoms: _116  and  _117
REMARK   45  A    between atoms: _119  and  _121
REMARK   46  A    between atoms: _121  and  _122
REMARK   47  A    between atoms: _124  and  _126
REMARK   48  A    between atoms: _126  and  _127
REMARK   49  A    between atoms: _130  and  _132
REMARK   50  A    between atoms: _132  and  _133
REMARK   51  A    between atoms: _132  and  _135
REMARK   52  A    between atoms: _135  and  _136
REMARK   53  A    between atoms: _136  and  _137
REMARK   54  A    between atoms: _137  and  _138
REMARK   55  A    between atoms: _138  and  _139
REMARK   56  A    between atoms: _143  and  _145
REMARK   57  A    between atoms: _145  and  _146
REMARK   58  A    between atoms: _145  and  _148
REMARK   59  A    between atoms: _148  and  _149
REMARK   60  A    between atoms: _149  and  _150
REMARK   61  A    between atoms: _152  and  _154
REMARK   62  A    between atoms: _154  and  _155
REMARK   63  A    between atoms: _154  and  _157
REMARK   64  A    between atoms: _157  and  _158
REMARK   65  A    between atoms: _163  and  _164
REMARK   66  A    between atoms: _166  and  _168
REMARK   67  A    between atoms: _168  and  _169
REMARK   68  A    between atoms: _168  and  _171
REMARK   69  A    between atoms: _171  and  _172
REMARK   70  A    between atoms: _175  and  _177
REMARK   71  A    between atoms: _177  and  _178
REMARK   72  A    between atoms: _177  and  _180
REMARK   73  A    between atoms: _180  and  _181
REMARK   74  A    between atoms: _187  and  _189
REMARK   75  A    between atoms: _189  and  _190
REMARK   76  A    between atoms: _189  and  _192
REMARK   77  A    between atoms: _192  and  _193
REMARK   78  A    between atoms: _198  and  _199
REMARK   79  A    between atoms: _201  and  _203
REMARK   80  A    between atoms: _203  and  _204
REMARK   81  A    between atoms: _206  and  _208
REMARK   82  A    between atoms: _208  and  _209
REMARK   83  A    between atoms: _211  and  _213
REMARK   84  A    between atoms: _213  and  _214
REMARK   85  A    between atoms: _213  and  _216
REMARK   86  A    between atoms: _216  and  _217
REMARK   87  A    between atoms: _227  and  _229
REMARK   88  A    between atoms: _229  and  _230
REMARK   89  A    between atoms: _229  and  _232
REMARK   90  A    between atoms: _232  and  _233
REMARK   91  A    between atoms: _238  and  _240
REMARK   92  A    between atoms: _240  and  _241
REMARK   93  A    between atoms: _240  and  _243
REMARK   94  A    between atoms: _243  and  _244
REMARK   95  A    between atoms: _249  and  _250
REMARK   96  A    between atoms: _252  and  _254
REMARK   97  A    between atoms: _254  and  _255
REMARK   98  A    between atoms: _254  and  _257
REMARK   99  A    between atoms: _257  and  _258
REMARK  100  A    between atoms: _263  and  _264
REMARK  101  A    between atoms: _266  and  _268
REMARK  102  A    between atoms: _268  and  _269
REMARK  103  A    between atoms: _268  and  _271
REMARK  104  A    between atoms: _271  and  _272
REMARK  105  A    between atoms: _272  and  _273
REMARK  106  A    between atoms: _273  and  _274
REMARK  107  A    between atoms: _283  and  _285
REMARK  108  A    between atoms: _285  and  _286
REMARK  109  A    between atoms: _285  and  _288
REMARK  110  A    between atoms: _288  and  _289
REMARK  111  A    between atoms: _289  and  _290
REMARK  112  A    between atoms: _290  and  _291
REMARK  113  A    between atoms: _291  and  _292
REMARK  114  A    between atoms: _296  and  _298
REMARK  115  A    between atoms: _298  and  _299
REMARK  116  A    between atoms: _298  and  _301
REMARK  117  A    between atoms: _301  and  _302
REMARK  118  A    between atoms: _302  and  _303
REMARK  119  A    between atoms: _306  and  _308
REMARK  120  A    between atoms: _308  and  _309
REMARK  121  A    between atoms: _308  and  _311
REMARK  122  A    between atoms: _314  and  _316
REMARK  123  A    between atoms: _316  and  _317
REMARK  124  A    between atoms: _316  and  _319
REMARK  125  A    between atoms: _319  and  _320
REMARK  126  A    between atoms: _330  and  _332
REMARK  127  A    between atoms: _332  and  _333
REMARK  128  A    between atoms: _332  and  _335
REMARK  129  A    between atoms: _335  and  _336
REMARK  130  A    between atoms: _336  and  _337
REMARK                            x       y       z     vdW  Elec       q    Type
REMARK                         _______ _______ _______ _____ _____    ______ ____
ROOT
ATOM      1  O   HOH     1      10.324  -7.527  24.271  0.00  0.00    +0.000 OA
ENDROOT
TORSDOF 0
REMARK  Name = ../refined-set-2016/3arw/3arw_pocket.pdb
REMARK  130 active torsions:
REMARK  status: ('A' for Active; 'I' for Inactive)
REMARK    1  A    between atoms: _1  and  _3
REMARK    2  A    between atoms: _3  and  _4
REMARK    3  A    between atoms: _3  and  _6
REMARK    4  A    between atoms: _6  and  _7
REMARK    5  A    between atoms: _17  and  _19
REMARK    6  A    between atoms: _19  and  _20
REMARK    7  A    between atoms: _19  and  _22
REMARK    8  A    between atoms: _22  and  _23
REMARK    9  A    between atoms: _29  and  _31
REMARK   10  A    between atoms: _31  and  _32
REMARK   11  A    between atoms: _31  and  _34
REMARK   12  A    between atoms: _34  and  _35
REMARK   13  A    between atoms: _37  and  _39
REMARK   14  A    between atoms: _39  and  _40
REMARK   15  A    between atoms: _39  and  _42
REMARK   16  A    between atoms: _42  and  _43
REMARK   17  A    between atoms: _45  and  _47
REMARK   18  A    between atoms: _47  and  _48
REMARK   19  A    between atoms: _47  and  _50
REMARK   20  A    between atoms: _53  and  _55
REMARK   21  A    between atoms: _55  and  _56
REMARK   22  A    between atoms: _58  and  _60
REMARK   23  A    between atoms: _60  and  _61
REMARK   24  A    between atoms: _60  and  _63
REMARK   25  A    between atoms: _63  and  _64
REMARK   26  A    between atoms: _74  and  _76
REMARK   27  A    between atoms: _76  and  _77
REMARK   28  A    between atoms: _76  and  _79
REMARK   29  A    between atoms: _79  and  _80
REMARK   30  A    between atoms: _83  and  _85
REMARK   31  A    between atoms: _85  and  _86
REMARK   32  A    between atoms: _85  and  _88
REMARK   33  A    between atoms: _88  and  _89
REMARK   34  A    between atoms: _92  and  _94
REMARK   35  A    between atoms: _94  and  _95
REMARK   36  A    between atoms: _94  and  _97
REMARK   37  A    between atoms: _97  and  _98
REMARK   38  A    between atoms: _98  and  _99
REMARK   39  A    between atoms: _102  and  _104
REMARK   40  A    between atoms: _104  and  _105
REMARK   41  A    between atoms: _104  and  _107
REMARK   42  A    between atoms: _107  and  _108
REMARK   43  A    between atoms: _114  and  _116
REMARK   44  A    between atoms: _116  and  _117
REMARK   45  A    between atoms: _119  and  _121
REMARK   46  A    between atoms: _121  and  _122
REMARK   47  A    between atoms: _124  and  _126
REMARK   48  A    between atoms: _126  and  _127
REMARK   49  A    between atoms: _130  and  _132
REMARK   50  A    between atoms: _132  and  _133
REMARK   51  A    between atoms: _132  and  _135
REMARK   52  A    between atoms: _135  and  _136
REMARK   53  A    between atoms: _136  and  _137
REMARK   54  A    between atoms: _137  and  _138
REMARK   55  A    between atoms: _138  and  _139
REMARK   56  A    between atoms: _143  and  _145
REMARK   57  A    between atoms: _145  and  _146
REMARK   58  A    between atoms: _145  and  _148
REMARK   59  A    between atoms: _148  and  _149
REMARK   60  A    between atoms: _149  and  _150
REMARK   61  A    between atoms: _152  and  _154
REMARK   62  A    between atoms: _154  and  _155
REMARK   63  A    between atoms: _154  and  _157
REMARK   64  A    between atoms: _157  and  _158
REMARK   65  A    between atoms: _163  and  _164
REMARK   66  A    between atoms: _166  and  _168
REMARK   67  A    between atoms: _168  and  _169
REMARK   68  A    between atoms: _168  and  _171
REMARK   69  A    between atoms: _171  and  _172
REMARK   70  A    between atoms: _175  and  _177
REMARK   71  A    between atoms: _177  and  _178
REMARK   72  A    between atoms: _177  and  _180
REMARK   73  A    between atoms: _180  and  _181
REMARK   74  A    between atoms: _187  and  _189
REMARK   75  A    between atoms: _189  and  _190
REMARK   76  A    between atoms: _189  and  _192
REMARK   77  A    between atoms: _192  and  _193
REMARK   78  A    between atoms: _198  and  _199
REMARK   79  A    between atoms: _201  and  _203
REMARK   80  A    between atoms: _203  and  _204
REMARK   81  A    between atoms: _206  and  _208
REMARK   82  A    between atoms: _208  and  _209
REMARK   83  A    between atoms: _211  and  _213
REMARK   84  A    between atoms: _213  and  _214
REMARK   85  A    between atoms: _213  and  _216
REMARK   86  A    between atoms: _216  and  _217
REMARK   87  A    between atoms: _227  and  _229
REMARK   88  A    between atoms: _229  and  _230
REMARK   89  A    between atoms: _229  and  _232
REMARK   90  A    between atoms: _232  and  _233
REMARK   91  A    between atoms: _238  and  _240
REMARK   92  A    between atoms: _240  and  _241
REMARK   93  A    between atoms: _240  and  _243
REMARK   94  A    between atoms: _243  and  _244
REMARK   95  A    between atoms: _249  and  _250
REMARK   96  A    between atoms: _252  and  _254
REMARK   97  A    between atoms: _254  and  _255
REMARK   98  A    between atoms: _254  and  _257
REMARK   99  A    between atoms: _257  and  _258
REMARK  100  A    between atoms: _263  and  _264
REMARK  101  A    between atoms: _266  and  _268
REMARK  102  A    between atoms: _268  and  _269
REMARK  103  A    between atoms: _268  and  _271
REMARK  104  A    between atoms: _271  and  _272
REMARK  105  A    between atoms: _272  and  _273
REMARK  106  A    between atoms: _273  and  _274
REMARK  107  A    between atoms: _283  and  _285
REMARK  108  A    between atoms: _285  and  _286
REMARK  109  A    between atoms: _285  and  _288
REMARK  110  A    between atoms: _288  and  _289
REMARK  111  A    between atoms: _289  and  _290
REMARK  112  A    between atoms: _290  and  _291
REMARK  113  A    between atoms: _291  and  _292
REMARK  114  A    between atoms: _296  and  _298
REMARK  115  A    between atoms: _298  and  _299
REMARK  116  A    between atoms: _298  and  _301
REMARK  117  A    between atoms: _301  and  _302
REMARK  118  A    between atoms: _302  and  _303
REMARK  119  A    between atoms: _306  and  _308
REMARK  120  A    between atoms: _308  and  _309
REMARK  121  A    between atoms: _308  and  _311
REMARK  122  A    between atoms: _314  and  _316
REMARK  123  A    between atoms: _316  and  _317
REMARK  124  A    between atoms: _316  and  _319
REMARK  125  A    between atoms: _319  and  _320
REMARK  126  A    between atoms: _330  and  _332
REMARK  127  A    between atoms: _332  and  _333
REMARK  128  A    between atoms: _332  and  _335
REMARK  129  A    between atoms: _335  and  _336
REMARK  130  A    between atoms: _336  and  _337
REMARK                            x       y       z     vdW  Elec       q    Type
REMARK                         _______ _______ _______ _____ _____    ______ ____
ROOT
ATOM      1  O   HOH     1      20.809 -11.987  16.420  0.00  0.00    +0.000 OA
ENDROOT
TORSDOF 0
