REMARK  Name = ../refined-set-2016/4i9h/4i9h_pocket.pdb
REMARK  282 active torsions:
REMARK  status: ('A' for Active; 'I' for Inactive)
REMARK    1  A    between atoms: _1  and  _3
REMARK    2  A    between atoms: _3  and  _4
REMARK    3  A    between atoms: _3  and  _6
REMARK    4  A    between atoms: _9  and  _11
REMARK    5  A    between atoms: _11  and  _12
REMARK    6  A    between atoms: _11  and  _14
REMARK    7  A    between atoms: _17  and  _19
REMARK    8  A    between atoms: _19  and  _20
REMARK    9  A    between atoms: _22  and  _24
REMARK   10  A    between atoms: _24  and  _25
REMARK   11  A    between atoms: _24  and  _27
REMARK   12  A    between atoms: _30  and  _32
REMARK   13  A    between atoms: _32  and  _33
REMARK   14  A    between atoms: _35  and  _37
REMARK   15  A    between atoms: _37  and  _38
REMARK   16  A    between atoms: _41  and  _43
REMARK   17  A    between atoms: _43  and  _44
REMARK   18  A    between atoms: _43  and  _46
REMARK   19  A    between atoms: _49  and  _51
REMARK   20  A    between atoms: _51  and  _52
REMARK   21  A    between atoms: _54  and  _56
REMARK   22  A    between atoms: _56  and  _57
REMARK   23  A    between atoms: _56  and  _59
REMARK   24  A    between atoms: _59  and  _60
REMARK   25  A    between atoms: _60  and  _61
REMARK   26  A    between atoms: _63  and  _65
REMARK   27  A    between atoms: _65  and  _66
REMARK   28  A    between atoms: _65  and  _68
REMARK   29  A    between atoms: _70  and  _72
REMARK   30  A    between atoms: _72  and  _73
REMARK   31  A    between atoms: _72  and  _75
REMARK   32  A    between atoms: _75  and  _76
REMARK   33  A    between atoms: _79  and  _81
REMARK   34  A    between atoms: _81  and  _82
REMARK   35  A    between atoms: _81  and  _84
REMARK   36  A    between atoms: _87  and  _89
REMARK   37  A    between atoms: _89  and  _90
REMARK   38  A    between atoms: _89  and  _92
REMARK   39  A    between atoms: _92  and  _93
REMARK   40  A    between atoms: _96  and  _98
REMARK   41  A    between atoms: _98  and  _99
REMARK   42  A    between atoms: _98  and  _101
REMARK   43  A    between atoms: _104  and  _106
REMARK   44  A    between atoms: _106  and  _107
REMARK   45  A    between atoms: _106  and  _109
REMARK   46  A    between atoms: _109  and  _110
REMARK   47  A    between atoms: _110  and  _111
REMARK   48  A    between atoms: _113  and  _115
REMARK   49  A    between atoms: _115  and  _116
REMARK   50  A    between atoms: _115  and  _118
REMARK   51  A    between atoms: _118  and  _119
REMARK   52  A    between atoms: _119  and  _120
REMARK   53  A    between atoms: _120  and  _121
REMARK   54  A    between atoms: _121  and  _122
REMARK   55  A    between atoms: _126  and  _128
REMARK   56  A    between atoms: _128  and  _129
REMARK   57  A    between atoms: _128  and  _131
REMARK   58  A    between atoms: _131  and  _132
REMARK   59  A    between atoms: _135  and  _137
REMARK   60  A    between atoms: _137  and  _138
REMARK   61  A    between atoms: _137  and  _140
REMARK   62  A    between atoms: _140  and  _141
REMARK   63  A    between atoms: _141  and  _142
REMARK   64  A    between atoms: _142  and  _143
REMARK   65  A    between atoms: _143  and  _144
REMARK   66  A    between atoms: _148  and  _150
REMARK   67  A    between atoms: _150  and  _151
REMARK   68  A    between atoms: _150  and  _153
REMARK   69  A    between atoms: _153  and  _154
REMARK   70  A    between atoms: _159  and  _160
REMARK   71  A    between atoms: _162  and  _164
REMARK   72  A    between atoms: _164  and  _165
REMARK   73  A    between atoms: _164  and  _167
REMARK   74  A    between atoms: _167  and  _168
REMARK   75  A    between atoms: _171  and  _173
REMARK   76  A    between atoms: _173  and  _174
REMARK   77  A    between atoms: _173  and  _176
REMARK   78  A    between atoms: _176  and  _177
REMARK   79  A    between atoms: _180  and  _182
REMARK   80  A    between atoms: _182  and  _183
REMARK   81  A    between atoms: _182  and  _185
REMARK   82  A    between atoms: _185  and  _186
REMARK   83  A    between atoms: _189  and  _191
REMARK   84  A    between atoms: _191  and  _192
REMARK   85  A    between atoms: _195  and  _197
REMARK   86  A    between atoms: _197  and  _198
REMARK   87  A    between atoms: _200  and  _202
REMARK   88  A    between atoms: _202  and  _203
REMARK   89  A    between atoms: _206  and  _208
REMARK   90  A    between atoms: _208  and  _209
REMARK   91  A    between atoms: _208  and  _211
REMARK   92  A    between atoms: _211  and  _212
REMARK   93  A    between atoms: _212  and  _213
REMARK   94  A    between atoms: _213  and  _214
REMARK   95  A    between atoms: _223  and  _225
REMARK   96  A    between atoms: _225  and  _226
REMARK   97  A    between atoms: _225  and  _228
REMARK   98  A    between atoms: _228  and  _229
REMARK   99  A    between atoms: _229  and  _230
REMARK  100  A    between atoms: _235  and  _237
REMARK  101  A    between atoms: _237  and  _238
REMARK  102  A    between atoms: _237  and  _240
REMARK  103  A    between atoms: _240  and  _241
REMARK  104  A    between atoms: _246  and  _248
REMARK  105  A    between atoms: _248  and  _249
REMARK  106  A    between atoms: _248  and  _251
REMARK  107  A    between atoms: _251  and  _252
REMARK  108  A    between atoms: _255  and  _257
REMARK  109  A    between atoms: _257  and  _258
REMARK  110  A    between atoms: _257  and  _260
REMARK  111  A    between atoms: _260  and  _261
REMARK  112  A    between atoms: _261  and  _262
REMARK  113  A    between atoms: _267  and  _269
REMARK  114  A    between atoms: _269  and  _270
REMARK  115  A    between atoms: _269  and  _272
REMARK  116  A    between atoms: _272  and  _273
REMARK  117  A    between atoms: _273  and  _274
REMARK  118  A    between atoms: _274  and  _275
REMARK  119  A    between atoms: _284  and  _286
REMARK  120  A    between atoms: _286  and  _287
REMARK  121  A    between atoms: _286  and  _289
REMARK  122  A    between atoms: _289  and  _290
REMARK  123  A    between atoms: _295  and  _297
REMARK  124  A    between atoms: _297  and  _298
REMARK  125  A    between atoms: _297  and  _300
REMARK  126  A    between atoms: _303  and  _305
REMARK  127  A    between atoms: _305  and  _306
REMARK  128  A    between atoms: _305  and  _308
REMARK  129  A    between atoms: _308  and  _309
REMARK  130  A    between atoms: _314  and  _316
REMARK  131  A    between atoms: _316  and  _317
REMARK  132  A    between atoms: _316  and  _319
REMARK  133  A    between atoms: _319  and  _320
REMARK  134  A    between atoms: _323  and  _325
REMARK  135  A    between atoms: _325  and  _326
REMARK  136  A    between atoms: _325  and  _328
REMARK  137  A    between atoms: _328  and  _329
REMARK  138  A    between atoms: _335  and  _337
REMARK  139  A    between atoms: _337  and  _338
REMARK  140  A    between atoms: _337  and  _340
REMARK  141  A    between atoms: _340  and  _341
REMARK  142  A    between atoms: _341  and  _342
REMARK  143  A    between atoms: _342  and  _343
REMARK  144  A    between atoms: _343  and  _344
REMARK  145  A    between atoms: _348  and  _350
REMARK  146  A    between atoms: _350  and  _351
REMARK  147  A    between atoms: _350  and  _353
REMARK  148  A    between atoms: _353  and  _354
REMARK  149  A    between atoms: _360  and  _362
REMARK  150  A    between atoms: _362  and  _363
REMARK  151  A    between atoms: _362  and  _365
REMARK  152  A    between atoms: _365  and  _366
REMARK  153  A    between atoms: _369  and  _371
REMARK  154  A    between atoms: _371  and  _372
REMARK  155  A    between atoms: _371  and  _374
REMARK  156  A    between atoms: _374  and  _375
REMARK  157  A    between atoms: _378  and  _380
REMARK  158  A    between atoms: _380  and  _381
REMARK  159  A    between atoms: _380  and  _383
REMARK  160  A    between atoms: _383  and  _384
REMARK  161  A    between atoms: _389  and  _391
REMARK  162  A    between atoms: _391  and  _392
REMARK  163  A    between atoms: _391  and  _394
REMARK  164  A    between atoms: _394  and  _395
REMARK  165  A    between atoms: _398  and  _400
REMARK  166  A    between atoms: _400  and  _401
REMARK  167  A    between atoms: _400  and  _403
REMARK  168  A    between atoms: _406  and  _408
REMARK  169  A    between atoms: _408  and  _409
REMARK  170  A    between atoms: _408  and  _411
REMARK  171  A    between atoms: _414  and  _416
REMARK  172  A    between atoms: _416  and  _417
REMARK  173  A    between atoms: _416  and  _419
REMARK  174  A    between atoms: _419  and  _420
REMARK  175  A    between atoms: _422  and  _424
REMARK  176  A    between atoms: _424  and  _425
REMARK  177  A    between atoms: _424  and  _427
REMARK  178  A    between atoms: _427  and  _428
REMARK  179  A    between atoms: _433  and  _435
REMARK  180  A    between atoms: _435  and  _436
REMARK  181  A    between atoms: _435  and  _438
REMARK  182  A    between atoms: _441  and  _443
REMARK  183  A    between atoms: _443  and  _444
REMARK  184  A    between atoms: _443  and  _446
REMARK  185  A    between atoms: _446  and  _447
REMARK  186  A    between atoms: _450  and  _452
REMARK  187  A    between atoms: _452  and  _453
REMARK  188  A    between atoms: _452  and  _455
REMARK  189  A    between atoms: _455  and  _456
REMARK  190  A    between atoms: _458  and  _460
REMARK  191  A    between atoms: _460  and  _461
REMARK  192  A    between atoms: _463  and  _465
REMARK  193  A    between atoms: _465  and  _466
REMARK  194  A    between atoms: _465  and  _468
REMARK  195  A    between atoms: _468  and  _469
REMARK  196  A    between atoms: _472  and  _474
REMARK  197  A    between atoms: _474  and  _475
REMARK  198  A    between atoms: _474  and  _477
REMARK  199  A    between atoms: _477  and  _478
REMARK  200  A    between atoms: _481  and  _483
REMARK  201  A    between atoms: _483  and  _484
REMARK  202  A    between atoms: _483  and  _486
REMARK  203  A    between atoms: _486  and  _487
REMARK  204  A    between atoms: _487  and  _488
REMARK  205  A    between atoms: _488  and  _489
REMARK  206  A    between atoms: _498  and  _500
REMARK  207  A    between atoms: _500  and  _501
REMARK  208  A    between atoms: _500  and  _503
REMARK  209  A    between atoms: _503  and  _504
REMARK  210  A    between atoms: _509  and  _511
REMARK  211  A    between atoms: _511  and  _512
REMARK  212  A    between atoms: _514  and  _516
REMARK  213  A    between atoms: _516  and  _517
REMARK  214  A    between atoms: _516  and  _519
REMARK  215  A    between atoms: _522  and  _524
REMARK  216  A    between atoms: _524  and  _525
REMARK  217  A    between atoms: _524  and  _527
REMARK  218  A    between atoms: _530  and  _532
REMARK  219  A    between atoms: _532  and  _533
REMARK  220  A    between atoms: _532  and  _535
REMARK  221  A    between atoms: _535  and  _536
REMARK  222  A    between atoms: _539  and  _541
REMARK  223  A    between atoms: _541  and  _542
REMARK  224  A    between atoms: _541  and  _544
REMARK  225  A    between atoms: _544  and  _545
REMARK  226  A    between atoms: _547  and  _549
REMARK  227  A    between atoms: _549  and  _550
REMARK  228  A    between atoms: _553  and  _555
REMARK  229  A    between atoms: _555  and  _556
REMARK  230  A    between atoms: _555  and  _558
REMARK  231  A    between atoms: _558  and  _559
REMARK  232  A    between atoms: _564  and  _565
REMARK  233  A    between atoms: _567  and  _569
REMARK  234  A    between atoms: _569  and  _570
REMARK  235  A    between atoms: _569  and  _572
REMARK  236  A    between atoms: _572  and  _573
REMARK  237  A    between atoms: _573  and  _574
REMARK  238  A    between atoms: _577  and  _579
REMARK  239  A    between atoms: _579  and  _580
REMARK  240  A    between atoms: _579  and  _582
REMARK  241  A    between atoms: _585  and  _587
REMARK  242  A    between atoms: _587  and  _588
REMARK  243  A    between atoms: _587  and  _590
REMARK  244  A    between atoms: _590  and  _591
REMARK  245  A    between atoms: _594  and  _596
REMARK  246  A    between atoms: _596  and  _597
REMARK  247  A    between atoms: _599  and  _601
REMARK  248  A    between atoms: _601  and  _602
REMARK  249  A    between atoms: _601  and  _604
REMARK  250  A    between atoms: _604  and  _605
REMARK  251  A    between atoms: _610  and  _611
REMARK  252  A    between atoms: _613  and  _615
REMARK  253  A    between atoms: _615  and  _616
REMARK  254  A    between atoms: _615  and  _618
REMARK  255  A    between atoms: _618  and  _619
REMARK  256  A    between atoms: _622  and  _624
REMARK  257  A    between atoms: _624  and  _625
REMARK  258  A    between atoms: _624  and  _627
REMARK  259  A    between atoms: _627  and  _628
REMARK  260  A    between atoms: _631  and  _633
REMARK  261  A    between atoms: _633  and  _634
REMARK  262  A    between atoms: _637  and  _639
REMARK  263  A    between atoms: _639  and  _640
REMARK  264  A    between atoms: _639  and  _642
REMARK  265  A    between atoms: _642  and  _643
REMARK  266  A    between atoms: _646  and  _648
REMARK  267  A    between atoms: _648  and  _649
REMARK  268  A    between atoms: _651  and  _653
REMARK  269  A    between atoms: _653  and  _654
REMARK  270  A    between atoms: _653  and  _656
REMARK  271  A    between atoms: _656  and  _657
REMARK  272  A    between atoms: _659  and  _661
REMARK  273  A    between atoms: _661  and  _662
REMARK  274  A    between atoms: _661  and  _664
REMARK  275  A    between atoms: _667  and  _669
REMARK  276  A    between atoms: _669  and  _670
REMARK  277  A    between atoms: _669  and  _672
REMARK  278  A    between atoms: _672  and  _673
REMARK  279  A    between atoms: _676  and  _678
REMARK  280  A    between atoms: _678  and  _679
REMARK  281  A    between atoms: _678  and  _681
REMARK  282  A    between atoms: _681  and  _682
REMARK                            x       y       z     vdW  Elec       q    Type
REMARK                         _______ _______ _______ _____ _____    ______ ____
ROOT
ATOM      1  C   VAL A   4      19.873  16.722  37.014  0.00  0.00    +0.241 C 
ATOM      2  N   GLY A   5      18.657  16.424  37.456  0.00  0.00    -0.295 N 
ATOM      3  H   GLY A   5      18.279  15.463  37.329  0.00  0.00    +0.150 HD
ATOM      4  O   VAL A   4      20.314  17.872  36.984  0.00  0.00    -0.273 OA
ENDROOT
BRANCH   2   5
ATOM      5  CA  GLY A   5      17.856  17.435  38.115  0.00  0.00    +0.176 C 
BRANCH   5   6
ATOM      6  C   GLY A   5      18.344  17.665  39.531  0.00  0.00    +0.243 C 
ATOM      7  N   ALA A   6      17.566  18.402  40.306  0.00  0.00    -0.297 N 
ATOM      8  H   ALA A   6      16.650  18.742  39.949  0.00  0.00    +0.150 HD
ATOM      9  O   GLY A   5      19.405  17.181  39.929  0.00  0.00    -0.273 OA
BRANCH   7  10
ATOM     10  CA  ALA A   6      17.987  18.736  41.650  0.00  0.00    +0.149 C 
ATOM     11  CB  ALA A   6      16.988  19.712  42.277  0.00  0.00    +0.031 C 
BRANCH  10  12
ATOM     12  C   ALA A   6      18.133  17.463  42.501  0.00  0.00    +0.241 C 
ATOM     13  O   ALA A   6      19.012  17.380  43.362  0.00  0.00    -0.273 OA
ATOM     14  N   VAL A   7      17.292  16.467  42.245  0.00  0.00    -0.297 N 
ATOM     15  H   VAL A   7      16.543  16.600  41.536  0.00  0.00    +0.150 HD
BRANCH  14  16
ATOM     16  CA  VAL A   7      17.402  15.191  42.942  0.00  0.00    +0.149 C 
BRANCH  16  17
ATOM     17  C   VAL A   7      18.630  14.387  42.524  0.00  0.00    +0.241 C 
ATOM     18  O   VAL A   7      19.375  13.895  43.372  0.00  0.00    -0.273 OA
ATOM     19  N   GLY A   8      18.836  14.249  41.217  0.00  0.00    -0.295 N 
ATOM     20  H   GLY A   8      18.183  14.692  40.539  0.00  0.00    +0.150 HD
BRANCH  19  21
ATOM     21  CA  GLY A   8      19.967  13.483  40.736  0.00  0.00    +0.176 C 
BRANCH  21  22
ATOM     22  C   GLY A   8      21.276  14.067  41.234  0.00  0.00    +0.243 C 
ATOM     23  O   GLY A   8      22.151  13.342  41.702  0.00  0.00    -0.273 OA
ATOM     24  N   MET A   9      21.398  15.388  41.147  0.00  0.00    -0.298 N 
ATOM     25  H   MET A   9      20.594  15.951  40.803  0.00  0.00    +0.150 HD
BRANCH  24  26
ATOM     26  CA  MET A   9      22.630  16.065  41.521  0.00  0.00    +0.138 C 
BRANCH  26  27
ATOM     27  C   MET A   9      22.877  16.006  43.036  0.00  0.00    +0.227 C 
ATOM     28  O   MET A   9      24.019  15.976  43.476  0.00  0.00    -0.286 OA
ENDBRANCH  26  27
BRANCH  26  29
ATOM     29  CB  MET A   9      22.592  17.517  41.031  0.00  0.00    +0.039 C 
BRANCH  29  30
ATOM     30  CG  MET A   9      22.761  17.661  39.515  0.00  0.00    +0.060 C 
BRANCH  30  31
ATOM     31  SD  MET A   9      23.979  16.495  38.802  0.00  0.00    -0.139 S 
ATOM     32  CE  MET A   9      25.498  17.060  39.515  0.00  0.00    +0.069 C 
ENDBRANCH  30  31
ENDBRANCH  29  30
ENDBRANCH  26  29
ENDBRANCH  24  26
ENDBRANCH  21  22
ENDBRANCH  19  21
ENDBRANCH  16  17
BRANCH  16  33
ATOM     33  CB  VAL A   7      16.173  14.324  42.701  0.00  0.00    +0.027 C 
ATOM     34  CG2 VAL A   7      14.950  14.996  43.316  0.00  0.00    +0.002 C 
ATOM     35  CG1 VAL A   7      16.397  12.932  43.295  0.00  0.00    +0.002 C 
ENDBRANCH  16  33
ENDBRANCH  14  16
ENDBRANCH  10  12
ENDBRANCH   7  10
ENDBRANCH   5   6
ENDBRANCH   2   5
BRANCH   1  36
ATOM     36  CA  VAL A   4      20.704  15.541  36.536  0.00  0.00    +0.149 C 
BRANCH  36  39
ATOM     37  C   GLY A   3      19.579  13.407  36.341  0.00  0.00    +0.243 C 
ATOM     38  O   GLY A   3      19.958  13.059  37.464  0.00  0.00    -0.273 OA
ATOM     39  N   VAL A   4      19.879  14.590  35.813  0.00  0.00    -0.297 N 
ATOM     40  H   VAL A   4      19.518  14.837  34.870  0.00  0.00    +0.150 HD
BRANCH  37  41
ATOM     41  CA  GLY A   3      18.735  12.480  35.487  0.00  0.00    +0.176 C 
BRANCH  41  44
ATOM     42  C   VAL A   2      19.358  10.161  35.808  0.00  0.00    +0.241 C 
ATOM     43  O   VAL A   2      18.533   9.999  36.704  0.00  0.00    -0.273 OA
ATOM     44  N   GLY A   3      19.484  11.293  35.120  0.00  0.00    -0.295 N 
ATOM     45  H   GLY A   3      20.130  11.327  34.306  0.00  0.00    +0.150 HD
BRANCH  42  46
ATOM     46  CA  VAL A   2      20.316   9.048  35.432  0.00  0.00    +0.148 C 
BRANCH  46  48
ATOM     47  C   VAL A   1      22.291   9.106  36.841  0.00  0.00    +0.238 C 
ATOM     48  N   VAL A   2      21.064   8.651  36.617  0.00  0.00    -0.297 N 
ATOM     49  H   VAL A   2      20.629   7.999  37.300  0.00  0.00    +0.150 HD
ATOM     50  O   VAL A   1      22.878   9.859  36.055  0.00  0.00    -0.274 OA
BRANCH  47  51
ATOM     51  CA  VAL A   1      22.969   8.646  38.134  0.00  0.00    +0.145 C 
BRANCH  51  52
ATOM     52  CB  VAL A   1      23.241   9.895  39.014  0.00  0.00    +0.025 C 
ATOM     53  CG2 VAL A   1      23.859   9.484  40.335  0.00  0.00    +0.002 C 
ATOM     54  CG1 VAL A   1      21.948  10.661  39.242  0.00  0.00    +0.002 C 
ENDBRANCH  51  52
BRANCH  51  55
ATOM     55  N   VAL A   1      24.204   7.957  37.793  0.00  0.00    -0.238 NA
ATOM     56  H   VAL A   1      24.977   8.498  37.354  0.00  0.00    +0.142 HD
ENDBRANCH  51  55
ENDBRANCH  47  51
ENDBRANCH  46  48
BRANCH  46  57
ATOM     57  CB  VAL A   2      19.506   7.875  34.846  0.00  0.00    +0.027 C 
ATOM     58  CG2 VAL A   2      20.445   6.788  34.327  0.00  0.00    +0.002 C 
ATOM     59  CG1 VAL A   2      18.609   8.382  33.714  0.00  0.00    +0.002 C 
ENDBRANCH  46  57
ENDBRANCH  42  46
ENDBRANCH  41  44
ENDBRANCH  37  41
ENDBRANCH  36  39
BRANCH  36  60
ATOM     60  CB  VAL A   4      21.879  16.041  35.660  0.00  0.00    +0.027 C 
ATOM     61  CG2 VAL A   4      22.756  14.862  35.257  0.00  0.00    +0.002 C 
ATOM     62  CG1 VAL A   4      21.352  16.771  34.420  0.00  0.00    +0.002 C 
ENDBRANCH  36  60
ENDBRANCH   1  36
TORSDOF 25
REMARK  Name = ../refined-set-2016/4i9h/4i9h_pocket.pdb
REMARK  282 active torsions:
REMARK  status: ('A' for Active; 'I' for Inactive)
REMARK    1  A    between atoms: _1  and  _3
REMARK    2  A    between atoms: _3  and  _4
REMARK    3  A    between atoms: _3  and  _6
REMARK    4  A    between atoms: _9  and  _11
REMARK    5  A    between atoms: _11  and  _12
REMARK    6  A    between atoms: _11  and  _14
REMARK    7  A    between atoms: _17  and  _19
REMARK    8  A    between atoms: _19  and  _20
REMARK    9  A    between atoms: _22  and  _24
REMARK   10  A    between atoms: _24  and  _25
REMARK   11  A    between atoms: _24  and  _27
REMARK   12  A    between atoms: _30  and  _32
REMARK   13  A    between atoms: _32  and  _33
REMARK   14  A    between atoms: _35  and  _37
REMARK   15  A    between atoms: _37  and  _38
REMARK   16  A    between atoms: _41  and  _43
REMARK   17  A    between atoms: _43  and  _44
REMARK   18  A    between atoms: _43  and  _46
REMARK   19  A    between atoms: _49  and  _51
REMARK   20  A    between atoms: _51  and  _52
REMARK   21  A    between atoms: _54  and  _56
REMARK   22  A    between atoms: _56  and  _57
REMARK   23  A    between atoms: _56  and  _59
REMARK   24  A    between atoms: _59  and  _60
REMARK   25  A    between atoms: _60  and  _61
REMARK   26  A    between atoms: _63  and  _65
REMARK   27  A    between atoms: _65  and  _66
REMARK   28  A    between atoms: _65  and  _68
REMARK   29  A    between atoms: _70  and  _72
REMARK   30  A    between atoms: _72  and  _73
REMARK   31  A    between atoms: _72  and  _75
REMARK   32  A    between atoms: _75  and  _76
REMARK   33  A    between atoms: _79  and  _81
REMARK   34  A    between atoms: _81  and  _82
REMARK   35  A    between atoms: _81  and  _84
REMARK   36  A    between atoms: _87  and  _89
REMARK   37  A    between atoms: _89  and  _90
REMARK   38  A    between atoms: _89  and  _92
REMARK   39  A    between atoms: _92  and  _93
REMARK   40  A    between atoms: _96  and  _98
REMARK   41  A    between atoms: _98  and  _99
REMARK   42  A    between atoms: _98  and  _101
REMARK   43  A    between atoms: _104  and  _106
REMARK   44  A    between atoms: _106  and  _107
REMARK   45  A    between atoms: _106  and  _109
REMARK   46  A    between atoms: _109  and  _110
REMARK   47  A    between atoms: _110  and  _111
REMARK   48  A    between atoms: _113  and  _115
REMARK   49  A    between atoms: _115  and  _116
REMARK   50  A    between atoms: _115  and  _118
REMARK   51  A    between atoms: _118  and  _119
REMARK   52  A    between atoms: _119  and  _120
REMARK   53  A    between atoms: _120  and  _121
REMARK   54  A    between atoms: _121  and  _122
REMARK   55  A    between atoms: _126  and  _128
REMARK   56  A    between atoms: _128  and  _129
REMARK   57  A    between atoms: _128  and  _131
REMARK   58  A    between atoms: _131  and  _132
REMARK   59  A    between atoms: _135  and  _137
REMARK   60  A    between atoms: _137  and  _138
REMARK   61  A    between atoms: _137  and  _140
REMARK   62  A    between atoms: _140  and  _141
REMARK   63  A    between atoms: _141  and  _142
REMARK   64  A    between atoms: _142  and  _143
REMARK   65  A    between atoms: _143  and  _144
REMARK   66  A    between atoms: _148  and  _150
REMARK   67  A    between atoms: _150  and  _151
REMARK   68  A    between atoms: _150  and  _153
REMARK   69  A    between atoms: _153  and  _154
REMARK   70  A    between atoms: _159  and  _160
REMARK   71  A    between atoms: _162  and  _164
REMARK   72  A    between atoms: _164  and  _165
REMARK   73  A    between atoms: _164  and  _167
REMARK   74  A    between atoms: _167  and  _168
REMARK   75  A    between atoms: _171  and  _173
REMARK   76  A    between atoms: _173  and  _174
REMARK   77  A    between atoms: _173  and  _176
REMARK   78  A    between atoms: _176  and  _177
REMARK   79  A    between atoms: _180  and  _182
REMARK   80  A    between atoms: _182  and  _183
REMARK   81  A    between atoms: _182  and  _185
REMARK   82  A    between atoms: _185  and  _186
REMARK   83  A    between atoms: _189  and  _191
REMARK   84  A    between atoms: _191  and  _192
REMARK   85  A    between atoms: _195  and  _197
REMARK   86  A    between atoms: _197  and  _198
REMARK   87  A    between atoms: _200  and  _202
REMARK   88  A    between atoms: _202  and  _203
REMARK   89  A    between atoms: _206  and  _208
REMARK   90  A    between atoms: _208  and  _209
REMARK   91  A    between atoms: _208  and  _211
REMARK   92  A    between atoms: _211  and  _212
REMARK   93  A    between atoms: _212  and  _213
REMARK   94  A    between atoms: _213  and  _214
REMARK   95  A    between atoms: _223  and  _225
REMARK   96  A    between atoms: _225  and  _226
REMARK   97  A    between atoms: _225  and  _228
REMARK   98  A    between atoms: _228  and  _229
REMARK   99  A    between atoms: _229  and  _230
REMARK  100  A    between atoms: _235  and  _237
REMARK  101  A    between atoms: _237  and  _238
REMARK  102  A    between atoms: _237  and  _240
REMARK  103  A    between atoms: _240  and  _241
REMARK  104  A    between atoms: _246  and  _248
REMARK  105  A    between atoms: _248  and  _249
REMARK  106  A    between atoms: _248  and  _251
REMARK  107  A    between atoms: _251  and  _252
REMARK  108  A    between atoms: _255  and  _257
REMARK  109  A    between atoms: _257  and  _258
REMARK  110  A    between atoms: _257  and  _260
REMARK  111  A    between atoms: _260  and  _261
REMARK  112  A    between atoms: _261  and  _262
REMARK  113  A    between atoms: _267  and  _269
REMARK  114  A    between atoms: _269  and  _270
REMARK  115  A    between atoms: _269  and  _272
REMARK  116  A    between atoms: _272  and  _273
REMARK  117  A    between atoms: _273  and  _274
REMARK  118  A    between atoms: _274  and  _275
REMARK  119  A    between atoms: _284  and  _286
REMARK  120  A    between atoms: _286  and  _287
REMARK  121  A    between atoms: _286  and  _289
REMARK  122  A    between atoms: _289  and  _290
REMARK  123  A    between atoms: _295  and  _297
REMARK  124  A    between atoms: _297  and  _298
REMARK  125  A    between atoms: _297  and  _300
REMARK  126  A    between atoms: _303  and  _305
REMARK  127  A    between atoms: _305  and  _306
REMARK  128  A    between atoms: _305  and  _308
REMARK  129  A    between atoms: _308  and  _309
REMARK  130  A    between atoms: _314  and  _316
REMARK  131  A    between atoms: _316  and  _317
REMARK  132  A    between atoms: _316  and  _319
REMARK  133  A    between atoms: _319  and  _320
REMARK  134  A    between atoms: _323  and  _325
REMARK  135  A    between atoms: _325  and  _326
REMARK  136  A    between atoms: _325  and  _328
REMARK  137  A    between atoms: _328  and  _329
REMARK  138  A    between atoms: _335  and  _337
REMARK  139  A    between atoms: _337  and  _338
REMARK  140  A    between atoms: _337  and  _340
REMARK  141  A    between atoms: _340  and  _341
REMARK  142  A    between atoms: _341  and  _342
REMARK  143  A    between atoms: _342  and  _343
REMARK  144  A    between atoms: _343  and  _344
REMARK  145  A    between atoms: _348  and  _350
REMARK  146  A    between atoms: _350  and  _351
REMARK  147  A    between atoms: _350  and  _353
REMARK  148  A    between atoms: _353  and  _354
REMARK  149  A    between atoms: _360  and  _362
REMARK  150  A    between atoms: _362  and  _363
REMARK  151  A    between atoms: _362  and  _365
REMARK  152  A    between atoms: _365  and  _366
REMARK  153  A    between atoms: _369  and  _371
REMARK  154  A    between atoms: _371  and  _372
REMARK  155  A    between atoms: _371  and  _374
REMARK  156  A    between atoms: _374  and  _375
REMARK  157  A    between atoms: _378  and  _380
REMARK  158  A    between atoms: _380  and  _381
REMARK  159  A    between atoms: _380  and  _383
REMARK  160  A    between atoms: _383  and  _384
REMARK  161  A    between atoms: _389  and  _391
REMARK  162  A    between atoms: _391  and  _392
REMARK  163  A    between atoms: _391  and  _394
REMARK  164  A    between atoms: _394  and  _395
REMARK  165  A    between atoms: _398  and  _400
REMARK  166  A    between atoms: _400  and  _401
REMARK  167  A    between atoms: _400  and  _403
REMARK  168  A    between atoms: _406  and  _408
REMARK  169  A    between atoms: _408  and  _409
REMARK  170  A    between atoms: _408  and  _411
REMARK  171  A    between atoms: _414  and  _416
REMARK  172  A    between atoms: _416  and  _417
REMARK  173  A    between atoms: _416  and  _419
REMARK  174  A    between atoms: _419  and  _420
REMARK  175  A    between atoms: _422  and  _424
REMARK  176  A    between atoms: _424  and  _425
REMARK  177  A    between atoms: _424  and  _427
REMARK  178  A    between atoms: _427  and  _428
REMARK  179  A    between atoms: _433  and  _435
REMARK  180  A    between atoms: _435  and  _436
REMARK  181  A    between atoms: _435  and  _438
REMARK  182  A    between atoms: _441  and  _443
REMARK  183  A    between atoms: _443  and  _444
REMARK  184  A    between atoms: _443  and  _446
REMARK  185  A    between atoms: _446  and  _447
REMARK  186  A    between atoms: _450  and  _452
REMARK  187  A    between atoms: _452  and  _453
REMARK  188  A    between atoms: _452  and  _455
REMARK  189  A    between atoms: _455  and  _456
REMARK  190  A    between atoms: _458  and  _460
REMARK  191  A    between atoms: _460  and  _461
REMARK  192  A    between atoms: _463  and  _465
REMARK  193  A    between atoms: _465  and  _466
REMARK  194  A    between atoms: _465  and  _468
REMARK  195  A    between atoms: _468  and  _469
REMARK  196  A    between atoms: _472  and  _474
REMARK  197  A    between atoms: _474  and  _475
REMARK  198  A    between atoms: _474  and  _477
REMARK  199  A    between atoms: _477  and  _478
REMARK  200  A    between atoms: _481  and  _483
REMARK  201  A    between atoms: _483  and  _484
REMARK  202  A    between atoms: _483  and  _486
REMARK  203  A    between atoms: _486  and  _487
REMARK  204  A    between atoms: _487  and  _488
REMARK  205  A    between atoms: _488  and  _489
REMARK  206  A    between atoms: _498  and  _500
REMARK  207  A    between atoms: _500  and  _501
REMARK  208  A    between atoms: _500  and  _503
REMARK  209  A    between atoms: _503  and  _504
REMARK  210  A    between atoms: _509  and  _511
REMARK  211  A    between atoms: _511  and  _512
REMARK  212  A    between atoms: _514  and  _516
REMARK  213  A    between atoms: _516  and  _517
REMARK  214  A    between atoms: _516  and  _519
REMARK  215  A    between atoms: _522  and  _524
REMARK  216  A    between atoms: _524  and  _525
REMARK  217  A    between atoms: _524  and  _527
REMARK  218  A    between atoms: _530  and  _532
REMARK  219  A    between atoms: _532  and  _533
REMARK  220  A    between atoms: _532  and  _535
REMARK  221  A    between atoms: _535  and  _536
REMARK  222  A    between atoms: _539  and  _541
REMARK  223  A    between atoms: _541  and  _542
REMARK  224  A    between atoms: _541  and  _544
REMARK  225  A    between atoms: _544  and  _545
REMARK  226  A    between atoms: _547  and  _549
REMARK  227  A    between atoms: _549  and  _550
REMARK  228  A    between atoms: _553  and  _555
REMARK  229  A    between atoms: _555  and  _556
REMARK  230  A    between atoms: _555  and  _558
REMARK  231  A    between atoms: _558  and  _559
REMARK  232  A    between atoms: _564  and  _565
REMARK  233  A    between atoms: _567  and  _569
REMARK  234  A    between atoms: _569  and  _570
REMARK  235  A    between atoms: _569  and  _572
REMARK  236  A    between atoms: _572  and  _573
REMARK  237  A    between atoms: _573  and  _574
REMARK  238  A    between atoms: _577  and  _579
REMARK  239  A    between atoms: _579  and  _580
REMARK  240  A    between atoms: _579  and  _582
REMARK  241  A    between atoms: _585  and  _587
REMARK  242  A    between atoms: _587  and  _588
REMARK  243  A    between atoms: _587  and  _590
REMARK  244  A    between atoms: _590  and  _591
REMARK  245  A    between atoms: _594  and  _596
REMARK  246  A    between atoms: _596  and  _597
REMARK  247  A    between atoms: _599  and  _601
REMARK  248  A    between atoms: _601  and  _602
REMARK  249  A    between atoms: _601  and  _604
REMARK  250  A    between atoms: _604  and  _605
REMARK  251  A    between atoms: _610  and  _611
REMARK  252  A    between atoms: _613  and  _615
REMARK  253  A    between atoms: _615  and  _616
REMARK  254  A    between atoms: _615  and  _618
REMARK  255  A    between atoms: _618  and  _619
REMARK  256  A    between atoms: _622  and  _624
REMARK  257  A    between atoms: _624  and  _625
REMARK  258  A    between atoms: _624  and  _627
REMARK  259  A    between atoms: _627  and  _628
REMARK  260  A    between atoms: _631  and  _633
REMARK  261  A    between atoms: _633  and  _634
REMARK  262  A    between atoms: _637  and  _639
REMARK  263  A    between atoms: _639  and  _640
REMARK  264  A    between atoms: _639  and  _642
REMARK  265  A    between atoms: _642  and  _643
REMARK  266  A    between atoms: _646  and  _648
REMARK  267  A    between atoms: _648  and  _649
REMARK  268  A    between atoms: _651  and  _653
REMARK  269  A    between atoms: _653  and  _654
REMARK  270  A    between atoms: _653  and  _656
REMARK  271  A    between atoms: _656  and  _657
REMARK  272  A    between atoms: _659  and  _661
REMARK  273  A    between atoms: _661  and  _662
REMARK  274  A    between atoms: _661  and  _664
REMARK  275  A    between atoms: _667  and  _669
REMARK  276  A    between atoms: _669  and  _670
REMARK  277  A    between atoms: _669  and  _672
REMARK  278  A    between atoms: _672  and  _673
REMARK  279  A    between atoms: _676  and  _678
REMARK  280  A    between atoms: _678  and  _679
REMARK  281  A    between atoms: _678  and  _681
REMARK  282  A    between atoms: _681  and  _682
REMARK                            x       y       z     vdW  Elec       q    Type
REMARK                         _______ _______ _______ _____ _____    ______ ____
ROOT
ATOM      1  CA  CYS A   1      22.427  12.009  44.973  0.00  0.00    +0.145 C 
ENDROOT
BRANCH   1   2
ATOM      2  N   CYS A   1      21.926  13.375  44.878  0.00  0.00    -0.238 NA
ATOM      3  H   CYS A   1      21.139  13.586  44.231  0.00  0.00    +0.142 HD
ENDBRANCH   1   2
BRANCH   1   4
ATOM      4  C   CYS A   1      23.889  11.978  44.579  0.00  0.00    +0.225 C 
ATOM      5  O   CYS A   1      24.689  11.270  45.194  0.00  0.00    -0.287 OA
ENDBRANCH   1   4
BRANCH   1   6
ATOM      6  CB  CYS A   1      21.641  11.084  44.043  0.00  0.00    +0.094 C 
ATOM      7  SG  CYS A   1      19.925  10.878  44.505  0.00  0.00    -0.080 S 
ENDBRANCH   1   6
TORSDOF 3
REMARK  Name = ../refined-set-2016/4i9h/4i9h_pocket.pdb
REMARK  282 active torsions:
REMARK  status: ('A' for Active; 'I' for Inactive)
REMARK    1  A    between atoms: _1  and  _3
REMARK    2  A    between atoms: _3  and  _4
REMARK    3  A    between atoms: _3  and  _6
REMARK    4  A    between atoms: _9  and  _11
REMARK    5  A    between atoms: _11  and  _12
REMARK    6  A    between atoms: _11  and  _14
REMARK    7  A    between atoms: _17  and  _19
REMARK    8  A    between atoms: _19  and  _20
REMARK    9  A    between atoms: _22  and  _24
REMARK   10  A    between atoms: _24  and  _25
REMARK   11  A    between atoms: _24  and  _27
REMARK   12  A    between atoms: _30  and  _32
REMARK   13  A    between atoms: _32  and  _33
REMARK   14  A    between atoms: _35  and  _37
REMARK   15  A    between atoms: _37  and  _38
REMARK   16  A    between atoms: _41  and  _43
REMARK   17  A    between atoms: _43  and  _44
REMARK   18  A    between atoms: _43  and  _46
REMARK   19  A    between atoms: _49  and  _51
REMARK   20  A    between atoms: _51  and  _52
REMARK   21  A    between atoms: _54  and  _56
REMARK   22  A    between atoms: _56  and  _57
REMARK   23  A    between atoms: _56  and  _59
REMARK   24  A    between atoms: _59  and  _60
REMARK   25  A    between atoms: _60  and  _61
REMARK   26  A    between atoms: _63  and  _65
REMARK   27  A    between atoms: _65  and  _66
REMARK   28  A    between atoms: _65  and  _68
REMARK   29  A    between atoms: _70  and  _72
REMARK   30  A    between atoms: _72  and  _73
REMARK   31  A    between atoms: _72  and  _75
REMARK   32  A    between atoms: _75  and  _76
REMARK   33  A    between atoms: _79  and  _81
REMARK   34  A    between atoms: _81  and  _82
REMARK   35  A    between atoms: _81  and  _84
REMARK   36  A    between atoms: _87  and  _89
REMARK   37  A    between atoms: _89  and  _90
REMARK   38  A    between atoms: _89  and  _92
REMARK   39  A    between atoms: _92  and  _93
REMARK   40  A    between atoms: _96  and  _98
REMARK   41  A    between atoms: _98  and  _99
REMARK   42  A    between atoms: _98  and  _101
REMARK   43  A    between atoms: _104  and  _106
REMARK   44  A    between atoms: _106  and  _107
REMARK   45  A    between atoms: _106  and  _109
REMARK   46  A    between atoms: _109  and  _110
REMARK   47  A    between atoms: _110  and  _111
REMARK   48  A    between atoms: _113  and  _115
REMARK   49  A    between atoms: _115  and  _116
REMARK   50  A    between atoms: _115  and  _118
REMARK   51  A    between atoms: _118  and  _119
REMARK   52  A    between atoms: _119  and  _120
REMARK   53  A    between atoms: _120  and  _121
REMARK   54  A    between atoms: _121  and  _122
REMARK   55  A    between atoms: _126  and  _128
REMARK   56  A    between atoms: _128  and  _129
REMARK   57  A    between atoms: _128  and  _131
REMARK   58  A    between atoms: _131  and  _132
REMARK   59  A    between atoms: _135  and  _137
REMARK   60  A    between atoms: _137  and  _138
REMARK   61  A    between atoms: _137  and  _140
REMARK   62  A    between atoms: _140  and  _141
REMARK   63  A    between atoms: _141  and  _142
REMARK   64  A    between atoms: _142  and  _143
REMARK   65  A    between atoms: _143  and  _144
REMARK   66  A    between atoms: _148  and  _150
REMARK   67  A    between atoms: _150  and  _151
REMARK   68  A    between atoms: _150  and  _153
REMARK   69  A    between atoms: _153  and  _154
REMARK   70  A    between atoms: _159  and  _160
REMARK   71  A    between atoms: _162  and  _164
REMARK   72  A    between atoms: _164  and  _165
REMARK   73  A    between atoms: _164  and  _167
REMARK   74  A    between atoms: _167  and  _168
REMARK   75  A    between atoms: _171  and  _173
REMARK   76  A    between atoms: _173  and  _174
REMARK   77  A    between atoms: _173  and  _176
REMARK   78  A    between atoms: _176  and  _177
REMARK   79  A    between atoms: _180  and  _182
REMARK   80  A    between atoms: _182  and  _183
REMARK   81  A    between atoms: _182  and  _185
REMARK   82  A    between atoms: _185  and  _186
REMARK   83  A    between atoms: _189  and  _191
REMARK   84  A    between atoms: _191  and  _192
REMARK   85  A    between atoms: _195  and  _197
REMARK   86  A    between atoms: _197  and  _198
REMARK   87  A    between atoms: _200  and  _202
REMARK   88  A    between atoms: _202  and  _203
REMARK   89  A    between atoms: _206  and  _208
REMARK   90  A    between atoms: _208  and  _209
REMARK   91  A    between atoms: _208  and  _211
REMARK   92  A    between atoms: _211  and  _212
REMARK   93  A    between atoms: _212  and  _213
REMARK   94  A    between atoms: _213  and  _214
REMARK   95  A    between atoms: _223  and  _225
REMARK   96  A    between atoms: _225  and  _226
REMARK   97  A    between atoms: _225  and  _228
REMARK   98  A    between atoms: _228  and  _229
REMARK   99  A    between atoms: _229  and  _230
REMARK  100  A    between atoms: _235  and  _237
REMARK  101  A    between atoms: _237  and  _238
REMARK  102  A    between atoms: _237  and  _240
REMARK  103  A    between atoms: _240  and  _241
REMARK  104  A    between atoms: _246  and  _248
REMARK  105  A    between atoms: _248  and  _249
REMARK  106  A    between atoms: _248  and  _251
REMARK  107  A    between atoms: _251  and  _252
REMARK  108  A    between atoms: _255  and  _257
REMARK  109  A    between atoms: _257  and  _258
REMARK  110  A    between atoms: _257  and  _260
REMARK  111  A    between atoms: _260  and  _261
REMARK  112  A    between atoms: _261  and  _262
REMARK  113  A    between atoms: _267  and  _269
REMARK  114  A    between atoms: _269  and  _270
REMARK  115  A    between atoms: _269  and  _272
REMARK  116  A    between atoms: _272  and  _273
REMARK  117  A    between atoms: _273  and  _274
REMARK  118  A    between atoms: _274  and  _275
REMARK  119  A    between atoms: _284  and  _286
REMARK  120  A    between atoms: _286  and  _287
REMARK  121  A    between atoms: _286  and  _289
REMARK  122  A    between atoms: _289  and  _290
REMARK  123  A    between atoms: _295  and  _297
REMARK  124  A    between atoms: _297  and  _298
REMARK  125  A    between atoms: _297  and  _300
REMARK  126  A    between atoms: _303  and  _305
REMARK  127  A    between atoms: _305  and  _306
REMARK  128  A    between atoms: _305  and  _308
REMARK  129  A    between atoms: _308  and  _309
REMARK  130  A    between atoms: _314  and  _316
REMARK  131  A    between atoms: _316  and  _317
REMARK  132  A    between atoms: _316  and  _319
REMARK  133  A    between atoms: _319  and  _320
REMARK  134  A    between atoms: _323  and  _325
REMARK  135  A    between atoms: _325  and  _326
REMARK  136  A    between atoms: _325  and  _328
REMARK  137  A    between atoms: _328  and  _329
REMARK  138  A    between atoms: _335  and  _337
REMARK  139  A    between atoms: _337  and  _338
REMARK  140  A    between atoms: _337  and  _340
REMARK  141  A    between atoms: _340  and  _341
REMARK  142  A    between atoms: _341  and  _342
REMARK  143  A    between atoms: _342  and  _343
REMARK  144  A    between atoms: _343  and  _344
REMARK  145  A    between atoms: _348  and  _350
REMARK  146  A    between atoms: _350  and  _351
REMARK  147  A    between atoms: _350  and  _353
REMARK  148  A    between atoms: _353  and  _354
REMARK  149  A    between atoms: _360  and  _362
REMARK  150  A    between atoms: _362  and  _363
REMARK  151  A    between atoms: _362  and  _365
REMARK  152  A    between atoms: _365  and  _366
REMARK  153  A    between atoms: _369  and  _371
REMARK  154  A    between atoms: _371  and  _372
REMARK  155  A    between atoms: _371  and  _374
REMARK  156  A    between atoms: _374  and  _375
REMARK  157  A    between atoms: _378  and  _380
REMARK  158  A    between atoms: _380  and  _381
REMARK  159  A    between atoms: _380  and  _383
REMARK  160  A    between atoms: _383  and  _384
REMARK  161  A    between atoms: _389  and  _391
REMARK  162  A    between atoms: _391  and  _392
REMARK  163  A    between atoms: _391  and  _394
REMARK  164  A    between atoms: _394  and  _395
REMARK  165  A    between atoms: _398  and  _400
REMARK  166  A    between atoms: _400  and  _401
REMARK  167  A    between atoms: _400  and  _403
REMARK  168  A    between atoms: _406  and  _408
REMARK  169  A    between atoms: _408  and  _409
REMARK  170  A    between atoms: _408  and  _411
REMARK  171  A    between atoms: _414  and  _416
REMARK  172  A    between atoms: _416  and  _417
REMARK  173  A    between atoms: _416  and  _419
REMARK  174  A    between atoms: _419  and  _420
REMARK  175  A    between atoms: _422  and  _424
REMARK  176  A    between atoms: _424  and  _425
REMARK  177  A    between atoms: _424  and  _427
REMARK  178  A    between atoms: _427  and  _428
REMARK  179  A    between atoms: _433  and  _435
REMARK  180  A    between atoms: _435  and  _436
REMARK  181  A    between atoms: _435  and  _438
REMARK  182  A    between atoms: _441  and  _443
REMARK  183  A    between atoms: _443  and  _444
REMARK  184  A    between atoms: _443  and  _446
REMARK  185  A    between atoms: _446  and  _447
REMARK  186  A    between atoms: _450  and  _452
REMARK  187  A    between atoms: _452  and  _453
REMARK  188  A    between atoms: _452  and  _455
REMARK  189  A    between atoms: _455  and  _456
REMARK  190  A    between atoms: _458  and  _460
REMARK  191  A    between atoms: _460  and  _461
REMARK  192  A    between atoms: _463  and  _465
REMARK  193  A    between atoms: _465  and  _466
REMARK  194  A    between atoms: _465  and  _468
REMARK  195  A    between atoms: _468  and  _469
REMARK  196  A    between atoms: _472  and  _474
REMARK  197  A    between atoms: _474  and  _475
REMARK  198  A    between atoms: _474  and  _477
REMARK  199  A    between atoms: _477  and  _478
REMARK  200  A    between atoms: _481  and  _483
REMARK  201  A    between atoms: _483  and  _484
REMARK  202  A    between atoms: _483  and  _486
REMARK  203  A    between atoms: _486  and  _487
REMARK  204  A    between atoms: _487  and  _488
REMARK  205  A    between atoms: _488  and  _489
REMARK  206  A    between atoms: _498  and  _500
REMARK  207  A    between atoms: _500  and  _501
REMARK  208  A    between atoms: _500  and  _503
REMARK  209  A    between atoms: _503  and  _504
REMARK  210  A    between atoms: _509  and  _511
REMARK  211  A    between atoms: _511  and  _512
REMARK  212  A    between atoms: _514  and  _516
REMARK  213  A    between atoms: _516  and  _517
REMARK  214  A    between atoms: _516  and  _519
REMARK  215  A    between atoms: _522  and  _524
REMARK  216  A    between atoms: _524  and  _525
REMARK  217  A    between atoms: _524  and  _527
REMARK  218  A    between atoms: _530  and  _532
REMARK  219  A    between atoms: _532  and  _533
REMARK  220  A    between atoms: _532  and  _535
REMARK  221  A    between atoms: _535  and  _536
REMARK  222  A    between atoms: _539  and  _541
REMARK  223  A    between atoms: _541  and  _542
REMARK  224  A    between atoms: _541  and  _544
REMARK  225  A    between atoms: _544  and  _545
REMARK  226  A    between atoms: _547  and  _549
REMARK  227  A    between atoms: _549  and  _550
REMARK  228  A    between atoms: _553  and  _555
REMARK  229  A    between atoms: _555  and  _556
REMARK  230  A    between atoms: _555  and  _558
REMARK  231  A    between atoms: _558  and  _559
REMARK  232  A    between atoms: _564  and  _565
REMARK  233  A    between atoms: _567  and  _569
REMARK  234  A    between atoms: _569  and  _570
REMARK  235  A    between atoms: _569  and  _572
REMARK  236  A    between atoms: _572  and  _573
REMARK  237  A    between atoms: _573  and  _574
REMARK  238  A    between atoms: _577  and  _579
REMARK  239  A    between atoms: _579  and  _580
REMARK  240  A    between atoms: _579  and  _582
REMARK  241  A    between atoms: _585  and  _587
REMARK  242  A    between atoms: _587  and  _588
REMARK  243  A    between atoms: _587  and  _590
REMARK  244  A    between atoms: _590  and  _591
REMARK  245  A    between atoms: _594  and  _596
REMARK  246  A    between atoms: _596  and  _597
REMARK  247  A    between atoms: _599  and  _601
REMARK  248  A    between atoms: _601  and  _602
REMARK  249  A    between atoms: _601  and  _604
REMARK  250  A    between atoms: _604  and  _605
REMARK  251  A    between atoms: _610  and  _611
REMARK  252  A    between atoms: _613  and  _615
REMARK  253  A    between atoms: _615  and  _616
REMARK  254  A    between atoms: _615  and  _618
REMARK  255  A    between atoms: _618  and  _619
REMARK  256  A    between atoms: _622  and  _624
REMARK  257  A    between atoms: _624  and  _625
REMARK  258  A    between atoms: _624  and  _627
REMARK  259  A    between atoms: _627  and  _628
REMARK  260  A    between atoms: _631  and  _633
REMARK  261  A    between atoms: _633  and  _634
REMARK  262  A    between atoms: _637  and  _639
REMARK  263  A    between atoms: _639  and  _640
REMARK  264  A    between atoms: _639  and  _642
REMARK  265  A    between atoms: _642  and  _643
REMARK  266  A    between atoms: _646  and  _648
REMARK  267  A    between atoms: _648  and  _649
REMARK  268  A    between atoms: _651  and  _653
REMARK  269  A    between atoms: _653  and  _654
REMARK  270  A    between atoms: _653  and  _656
REMARK  271  A    between atoms: _656  and  _657
REMARK  272  A    between atoms: _659  and  _661
REMARK  273  A    between atoms: _661  and  _662
REMARK  274  A    between atoms: _661  and  _664
REMARK  275  A    between atoms: _667  and  _669
REMARK  276  A    between atoms: _669  and  _670
REMARK  277  A    between atoms: _669  and  _672
REMARK  278  A    between atoms: _672  and  _673
REMARK  279  A    between atoms: _676  and  _678
REMARK  280  A    between atoms: _678  and  _679
REMARK  281  A    between atoms: _678  and  _681
REMARK  282  A    between atoms: _681  and  _682
REMARK                            x       y       z     vdW  Elec       q    Type
REMARK                         _______ _______ _______ _____ _____    ______ ____
ROOT
ATOM      1  CA  ASP A   3      20.285  13.107  30.846  0.00  0.00    +0.160 C 
ENDROOT
BRANCH   1   2
ATOM      2  C   ASP A   3      20.057  13.405  29.366  0.00  0.00    +0.241 C 
ATOM      3  N   VAL A   4      18.904  13.977  29.022  0.00  0.00    -0.297 N 
ATOM      4  H   VAL A   4      18.167  14.124  29.741  0.00  0.00    +0.150 HD
ATOM      5  O   ASP A   3      20.917  13.099  28.540  0.00  0.00    -0.273 OA
BRANCH   3   6
ATOM      6  CA  VAL A   4      18.665  14.400  27.642  0.00  0.00    +0.149 C 
BRANCH   6   7
ATOM      7  C   VAL A   4      18.938  15.876  27.400  0.00  0.00    +0.241 C 
ATOM      8  N   MET A   5      19.091  16.649  28.470  0.00  0.00    -0.298 N 
ATOM      9  H   MET A   5      18.944  16.252  29.420  0.00  0.00    +0.150 HD
ATOM     10  O   VAL A   4      18.995  16.316  26.252  0.00  0.00    -0.273 OA
BRANCH   8  11
ATOM     11  CA  MET A   5      19.464  18.053  28.318  0.00  0.00    +0.138 C 
BRANCH  11  12
ATOM     12  C   MET A   5      20.981  18.183  28.346  0.00  0.00    +0.227 C 
ATOM     13  O   MET A   5      21.583  18.274  29.415  0.00  0.00    -0.286 OA
ENDBRANCH  11  12
BRANCH  11  14
ATOM     14  CB  MET A   5      18.859  18.894  29.442  0.00  0.00    +0.039 C 
BRANCH  14  15
ATOM     15  CG  MET A   5      17.344  18.819  29.540  0.00  0.00    +0.060 C 
BRANCH  15  16
ATOM     16  SD  MET A   5      16.751  19.770  30.951  0.00  0.00    -0.139 S 
ATOM     17  CE  MET A   5      17.110  21.436  30.401  0.00  0.00    +0.069 C 
ENDBRANCH  15  16
ENDBRANCH  14  15
ENDBRANCH  11  14
ENDBRANCH   8  11
ENDBRANCH   6   7
BRANCH   6  18
ATOM     18  CB  VAL A   4      17.219  14.101  27.183  0.00  0.00    +0.027 C 
ATOM     19  CG2 VAL A   4      16.212  14.717  28.161  0.00  0.00    +0.002 C 
ATOM     20  CG1 VAL A   4      17.014  12.603  27.065  0.00  0.00    +0.002 C 
ENDBRANCH   6  18
ENDBRANCH   3   6
ENDBRANCH   1   2
BRANCH   1  23
ATOM     21  C   VAL A   2      21.872  11.667  32.009  0.00  0.00    +0.241 C 
ATOM     22  O   VAL A   2      21.163  11.606  33.016  0.00  0.00    -0.273 OA
ATOM     23  N   ASP A   3      21.557  12.401  30.944  0.00  0.00    -0.297 N 
ATOM     24  H   ASP A   3      22.237  12.473  30.160  0.00  0.00    +0.150 HD
BRANCH  21  25
ATOM     25  CA  VAL A   2      23.178  10.885  31.923  0.00  0.00    +0.148 C 
BRANCH  25  27
ATOM     26  C   LEU A   1      25.180  11.190  33.265  0.00  0.00    +0.238 C 
ATOM     27  N   VAL A   2      23.890  10.889  33.194  0.00  0.00    -0.297 N 
ATOM     28  H   VAL A   2      23.375  10.650  34.066  0.00  0.00    +0.150 HD
ATOM     29  O   LEU A   1      25.863  11.404  32.274  0.00  0.00    -0.274 OA
BRANCH  26  30
ATOM     30  CA  LEU A   1      25.788  11.270  34.661  0.00  0.00    +0.145 C 
BRANCH  30  31
ATOM     31  N   LEU A   1      27.075  10.586  34.691  0.00  0.00    -0.238 NA
ATOM     32  H   LEU A   1      27.856  10.951  34.109  0.00  0.00    +0.142 HD
ENDBRANCH  30  31
BRANCH  30  33
ATOM     33  CB  LEU A   1      25.959  12.738  35.033  0.00  0.00    +0.026 C 
BRANCH  33  34
ATOM     34  CG  LEU A   1      26.695  13.069  36.329  0.00  0.00    +0.002 C 
ATOM     35  CD2 LEU A   1      25.979  12.436  37.513  0.00  0.00    +0.000 C 
ATOM     36  CD1 LEU A   1      26.750  14.585  36.482  0.00  0.00    +0.000 C 
ENDBRANCH  33  34
ENDBRANCH  30  33
ENDBRANCH  26  30
ENDBRANCH  25  27
BRANCH  25  37
ATOM     37  CB  VAL A   2      22.852   9.450  31.478  0.00  0.00    +0.027 C 
ATOM     38  CG2 VAL A   2      24.149   8.707  31.186  0.00  0.00    +0.002 C 
ATOM     39  CG1 VAL A   2      21.932   9.472  30.252  0.00  0.00    +0.002 C 
ENDBRANCH  25  37
ENDBRANCH  21  25
ENDBRANCH   1  23
BRANCH   1  40
ATOM     40  CB  ASP A   3      20.342  14.403  31.663  0.00  0.00    +0.143 C 
BRANCH  40  41
ATOM     41  CG  ASP A   3      18.955  14.939  32.021  0.00  0.00    +0.367 C 
ATOM     42  OD2 ASP A   3      18.636  15.040  33.230  0.00  0.00    -0.246 OA
ATOM     43  OD1 ASP A   3      18.188  15.260  31.089  0.00  0.00    -0.246 OA
ENDBRANCH  40  41
ENDBRANCH   1  40
TORSDOF 19
REMARK  Name = ../refined-set-2016/4i9h/4i9h_pocket.pdb
REMARK  282 active torsions:
REMARK  status: ('A' for Active; 'I' for Inactive)
REMARK    1  A    between atoms: _1  and  _3
REMARK    2  A    between atoms: _3  and  _4
REMARK    3  A    between atoms: _3  and  _6
REMARK    4  A    between atoms: _9  and  _11
REMARK    5  A    between atoms: _11  and  _12
REMARK    6  A    between atoms: _11  and  _14
REMARK    7  A    between atoms: _17  and  _19
REMARK    8  A    between atoms: _19  and  _20
REMARK    9  A    between atoms: _22  and  _24
REMARK   10  A    between atoms: _24  and  _25
REMARK   11  A    between atoms: _24  and  _27
REMARK   12  A    between atoms: _30  and  _32
REMARK   13  A    between atoms: _32  and  _33
REMARK   14  A    between atoms: _35  and  _37
REMARK   15  A    between atoms: _37  and  _38
REMARK   16  A    between atoms: _41  and  _43
REMARK   17  A    between atoms: _43  and  _44
REMARK   18  A    between atoms: _43  and  _46
REMARK   19  A    between atoms: _49  and  _51
REMARK   20  A    between atoms: _51  and  _52
REMARK   21  A    between atoms: _54  and  _56
REMARK   22  A    between atoms: _56  and  _57
REMARK   23  A    between atoms: _56  and  _59
REMARK   24  A    between atoms: _59  and  _60
REMARK   25  A    between atoms: _60  and  _61
REMARK   26  A    between atoms: _63  and  _65
REMARK   27  A    between atoms: _65  and  _66
REMARK   28  A    between atoms: _65  and  _68
REMARK   29  A    between atoms: _70  and  _72
REMARK   30  A    between atoms: _72  and  _73
REMARK   31  A    between atoms: _72  and  _75
REMARK   32  A    between atoms: _75  and  _76
REMARK   33  A    between atoms: _79  and  _81
REMARK   34  A    between atoms: _81  and  _82
REMARK   35  A    between atoms: _81  and  _84
REMARK   36  A    between atoms: _87  and  _89
REMARK   37  A    between atoms: _89  and  _90
REMARK   38  A    between atoms: _89  and  _92
REMARK   39  A    between atoms: _92  and  _93
REMARK   40  A    between atoms: _96  and  _98
REMARK   41  A    between atoms: _98  and  _99
REMARK   42  A    between atoms: _98  and  _101
REMARK   43  A    between atoms: _104  and  _106
REMARK   44  A    between atoms: _106  and  _107
REMARK   45  A    between atoms: _106  and  _109
REMARK   46  A    between atoms: _109  and  _110
REMARK   47  A    between atoms: _110  and  _111
REMARK   48  A    between atoms: _113  and  _115
REMARK   49  A    between atoms: _115  and  _116
REMARK   50  A    between atoms: _115  and  _118
REMARK   51  A    between atoms: _118  and  _119
REMARK   52  A    between atoms: _119  and  _120
REMARK   53  A    between atoms: _120  and  _121
REMARK   54  A    between atoms: _121  and  _122
REMARK   55  A    between atoms: _126  and  _128
REMARK   56  A    between atoms: _128  and  _129
REMARK   57  A    between atoms: _128  and  _131
REMARK   58  A    between atoms: _131  and  _132
REMARK   59  A    between atoms: _135  and  _137
REMARK   60  A    between atoms: _137  and  _138
REMARK   61  A    between atoms: _137  and  _140
REMARK   62  A    between atoms: _140  and  _141
REMARK   63  A    between atoms: _141  and  _142
REMARK   64  A    between atoms: _142  and  _143
REMARK   65  A    between atoms: _143  and  _144
REMARK   66  A    between atoms: _148  and  _150
REMARK   67  A    between atoms: _150  and  _151
REMARK   68  A    between atoms: _150  and  _153
REMARK   69  A    between atoms: _153  and  _154
REMARK   70  A    between atoms: _159  and  _160
REMARK   71  A    between atoms: _162  and  _164
REMARK   72  A    between atoms: _164  and  _165
REMARK   73  A    between atoms: _164  and  _167
REMARK   74  A    between atoms: _167  and  _168
REMARK   75  A    between atoms: _171  and  _173
REMARK   76  A    between atoms: _173  and  _174
REMARK   77  A    between atoms: _173  and  _176
REMARK   78  A    between atoms: _176  and  _177
REMARK   79  A    between atoms: _180  and  _182
REMARK   80  A    between atoms: _182  and  _183
REMARK   81  A    between atoms: _182  and  _185
REMARK   82  A    between atoms: _185  and  _186
REMARK   83  A    between atoms: _189  and  _191
REMARK   84  A    between atoms: _191  and  _192
REMARK   85  A    between atoms: _195  and  _197
REMARK   86  A    between atoms: _197  and  _198
REMARK   87  A    between atoms: _200  and  _202
REMARK   88  A    between atoms: _202  and  _203
REMARK   89  A    between atoms: _206  and  _208
REMARK   90  A    between atoms: _208  and  _209
REMARK   91  A    between atoms: _208  and  _211
REMARK   92  A    between atoms: _211  and  _212
REMARK   93  A    between atoms: _212  and  _213
REMARK   94  A    between atoms: _213  and  _214
REMARK   95  A    between atoms: _223  and  _225
REMARK   96  A    between atoms: _225  and  _226
REMARK   97  A    between atoms: _225  and  _228
REMARK   98  A    between atoms: _228  and  _229
REMARK   99  A    between atoms: _229  and  _230
REMARK  100  A    between atoms: _235  and  _237
REMARK  101  A    between atoms: _237  and  _238
REMARK  102  A    between atoms: _237  and  _240
REMARK  103  A    between atoms: _240  and  _241
REMARK  104  A    between atoms: _246  and  _248
REMARK  105  A    between atoms: _248  and  _249
REMARK  106  A    between atoms: _248  and  _251
REMARK  107  A    between atoms: _251  and  _252
REMARK  108  A    between atoms: _255  and  _257
REMARK  109  A    between atoms: _257  and  _258
REMARK  110  A    between atoms: _257  and  _260
REMARK  111  A    between atoms: _260  and  _261
REMARK  112  A    between atoms: _261  and  _262
REMARK  113  A    between atoms: _267  and  _269
REMARK  114  A    between atoms: _269  and  _270
REMARK  115  A    between atoms: _269  and  _272
REMARK  116  A    between atoms: _272  and  _273
REMARK  117  A    between atoms: _273  and  _274
REMARK  118  A    between atoms: _274  and  _275
REMARK  119  A    between atoms: _284  and  _286
REMARK  120  A    between atoms: _286  and  _287
REMARK  121  A    between atoms: _286  and  _289
REMARK  122  A    between atoms: _289  and  _290
REMARK  123  A    between atoms: _295  and  _297
REMARK  124  A    between atoms: _297  and  _298
REMARK  125  A    between atoms: _297  and  _300
REMARK  126  A    between atoms: _303  and  _305
REMARK  127  A    between atoms: _305  and  _306
REMARK  128  A    between atoms: _305  and  _308
REMARK  129  A    between atoms: _308  and  _309
REMARK  130  A    between atoms: _314  and  _316
REMARK  131  A    between atoms: _316  and  _317
REMARK  132  A    between atoms: _316  and  _319
REMARK  133  A    between atoms: _319  and  _320
REMARK  134  A    between atoms: _323  and  _325
REMARK  135  A    between atoms: _325  and  _326
REMARK  136  A    between atoms: _325  and  _328
REMARK  137  A    between atoms: _328  and  _329
REMARK  138  A    between atoms: _335  and  _337
REMARK  139  A    between atoms: _337  and  _338
REMARK  140  A    between atoms: _337  and  _340
REMARK  141  A    between atoms: _340  and  _341
REMARK  142  A    between atoms: _341  and  _342
REMARK  143  A    between atoms: _342  and  _343
REMARK  144  A    between atoms: _343  and  _344
REMARK  145  A    between atoms: _348  and  _350
REMARK  146  A    between atoms: _350  and  _351
REMARK  147  A    between atoms: _350  and  _353
REMARK  148  A    between atoms: _353  and  _354
REMARK  149  A    between atoms: _360  and  _362
REMARK  150  A    between atoms: _362  and  _363
REMARK  151  A    between atoms: _362  and  _365
REMARK  152  A    between atoms: _365  and  _366
REMARK  153  A    between atoms: _369  and  _371
REMARK  154  A    between atoms: _371  and  _372
REMARK  155  A    between atoms: _371  and  _374
REMARK  156  A    between atoms: _374  and  _375
REMARK  157  A    between atoms: _378  and  _380
REMARK  158  A    between atoms: _380  and  _381
REMARK  159  A    between atoms: _380  and  _383
REMARK  160  A    between atoms: _383  and  _384
REMARK  161  A    between atoms: _389  and  _391
REMARK  162  A    between atoms: _391  and  _392
REMARK  163  A    between atoms: _391  and  _394
REMARK  164  A    between atoms: _394  and  _395
REMARK  165  A    between atoms: _398  and  _400
REMARK  166  A    between atoms: _400  and  _401
REMARK  167  A    between atoms: _400  and  _403
REMARK  168  A    between atoms: _406  and  _408
REMARK  169  A    between atoms: _408  and  _409
REMARK  170  A    between atoms: _408  and  _411
REMARK  171  A    between atoms: _414  and  _416
REMARK  172  A    between atoms: _416  and  _417
REMARK  173  A    between atoms: _416  and  _419
REMARK  174  A    between atoms: _419  and  _420
REMARK  175  A    between atoms: _422  and  _424
REMARK  176  A    between atoms: _424  and  _425
REMARK  177  A    between atoms: _424  and  _427
REMARK  178  A    between atoms: _427  and  _428
REMARK  179  A    between atoms: _433  and  _435
REMARK  180  A    between atoms: _435  and  _436
REMARK  181  A    between atoms: _435  and  _438
REMARK  182  A    between atoms: _441  and  _443
REMARK  183  A    between atoms: _443  and  _444
REMARK  184  A    between atoms: _443  and  _446
REMARK  185  A    between atoms: _446  and  _447
REMARK  186  A    between atoms: _450  and  _452
REMARK  187  A    between atoms: _452  and  _453
REMARK  188  A    between atoms: _452  and  _455
REMARK  189  A    between atoms: _455  and  _456
REMARK  190  A    between atoms: _458  and  _460
REMARK  191  A    between atoms: _460  and  _461
REMARK  192  A    between atoms: _463  and  _465
REMARK  193  A    between atoms: _465  and  _466
REMARK  194  A    between atoms: _465  and  _468
REMARK  195  A    between atoms: _468  and  _469
REMARK  196  A    between atoms: _472  and  _474
REMARK  197  A    between atoms: _474  and  _475
REMARK  198  A    between atoms: _474  and  _477
REMARK  199  A    between atoms: _477  and  _478
REMARK  200  A    between atoms: _481  and  _483
REMARK  201  A    between atoms: _483  and  _484
REMARK  202  A    between atoms: _483  and  _486
REMARK  203  A    between atoms: _486  and  _487
REMARK  204  A    between atoms: _487  and  _488
REMARK  205  A    between atoms: _488  and  _489
REMARK  206  A    between atoms: _498  and  _500
REMARK  207  A    between atoms: _500  and  _501
REMARK  208  A    between atoms: _500  and  _503
REMARK  209  A    between atoms: _503  and  _504
REMARK  210  A    between atoms: _509  and  _511
REMARK  211  A    between atoms: _511  and  _512
REMARK  212  A    between atoms: _514  and  _516
REMARK  213  A    between atoms: _516  and  _517
REMARK  214  A    between atoms: _516  and  _519
REMARK  215  A    between atoms: _522  and  _524
REMARK  216  A    between atoms: _524  and  _525
REMARK  217  A    between atoms: _524  and  _527
REMARK  218  A    between atoms: _530  and  _532
REMARK  219  A    between atoms: _532  and  _533
REMARK  220  A    between atoms: _532  and  _535
REMARK  221  A    between atoms: _535  and  _536
REMARK  222  A    between atoms: _539  and  _541
REMARK  223  A    between atoms: _541  and  _542
REMARK  224  A    between atoms: _541  and  _544
REMARK  225  A    between atoms: _544  and  _545
REMARK  226  A    between atoms: _547  and  _549
REMARK  227  A    between atoms: _549  and  _550
REMARK  228  A    between atoms: _553  and  _555
REMARK  229  A    between atoms: _555  and  _556
REMARK  230  A    between atoms: _555  and  _558
REMARK  231  A    between atoms: _558  and  _559
REMARK  232  A    between atoms: _564  and  _565
REMARK  233  A    between atoms: _567  and  _569
REMARK  234  A    between atoms: _569  and  _570
REMARK  235  A    between atoms: _569  and  _572
REMARK  236  A    between atoms: _572  and  _573
REMARK  237  A    between atoms: _573  and  _574
REMARK  238  A    between atoms: _577  and  _579
REMARK  239  A    between atoms: _579  and  _580
REMARK  240  A    between atoms: _579  and  _582
REMARK  241  A    between atoms: _585  and  _587
REMARK  242  A    between atoms: _587  and  _588
REMARK  243  A    between atoms: _587  and  _590
REMARK  244  A    between atoms: _590  and  _591
REMARK  245  A    between atoms: _594  and  _596
REMARK  246  A    between atoms: _596  and  _597
REMARK  247  A    between atoms: _599  and  _601
REMARK  248  A    between atoms: _601  and  _602
REMARK  249  A    between atoms: _601  and  _604
REMARK  250  A    between atoms: _604  and  _605
REMARK  251  A    between atoms: _610  and  _611
REMARK  252  A    between atoms: _613  and  _615
REMARK  253  A    between atoms: _615  and  _616
REMARK  254  A    between atoms: _615  and  _618
REMARK  255  A    between atoms: _618  and  _619
REMARK  256  A    between atoms: _622  and  _624
REMARK  257  A    between atoms: _624  and  _625
REMARK  258  A    between atoms: _624  and  _627
REMARK  259  A    between atoms: _627  and  _628
REMARK  260  A    between atoms: _631  and  _633
REMARK  261  A    between atoms: _633  and  _634
REMARK  262  A    between atoms: _637  and  _639
REMARK  263  A    between atoms: _639  and  _640
REMARK  264  A    between atoms: _639  and  _642
REMARK  265  A    between atoms: _642  and  _643
REMARK  266  A    between atoms: _646  and  _648
REMARK  267  A    between atoms: _648  and  _649
REMARK  268  A    between atoms: _651  and  _653
REMARK  269  A    between atoms: _653  and  _654
REMARK  270  A    between atoms: _653  and  _656
REMARK  271  A    between atoms: _656  and  _657
REMARK  272  A    between atoms: _659  and  _661
REMARK  273  A    between atoms: _661  and  _662
REMARK  274  A    between atoms: _661  and  _664
REMARK  275  A    between atoms: _667  and  _669
REMARK  276  A    between atoms: _669  and  _670
REMARK  277  A    between atoms: _669  and  _672
REMARK  278  A    between atoms: _672  and  _673
REMARK  279  A    between atoms: _676  and  _678
REMARK  280  A    between atoms: _678  and  _679
REMARK  281  A    between atoms: _678  and  _681
REMARK  282  A    between atoms: _681  and  _682
REMARK                            x       y       z     vdW  Elec       q    Type
REMARK                         _______ _______ _______ _____ _____    ______ ____
ROOT
ATOM      1  CA  LYS A   1      22.746  21.164  31.623  0.00  0.00    +0.145 C 
ENDROOT
BRANCH   1   2
ATOM      2  C   LYS A   1      23.688  20.051  32.094  0.00  0.00    +0.238 C 
ATOM      3  O   LYS A   1      24.443  20.219  33.050  0.00  0.00    -0.274 OA
ATOM      4  N   LEU A   2      23.635  18.921  31.396  0.00  0.00    -0.298 N 
ATOM      5  H   LEU A   2      22.995  18.878  30.578  0.00  0.00    +0.150 HD
BRANCH   4   6
ATOM      6  CA  LEU A   2      24.424  17.742  31.715  0.00  0.00    +0.137 C 
BRANCH   6   7
ATOM      7  C   LEU A   2      25.921  18.048  31.728  0.00  0.00    +0.227 C 
ATOM      8  O   LEU A   2      26.606  17.760  32.703  0.00  0.00    -0.286 OA
ENDBRANCH   6   7
BRANCH   6   9
ATOM      9  CB  LEU A   2      24.131  16.654  30.684  0.00  0.00    +0.028 C 
BRANCH   9  10
ATOM     10  CG  LEU A   2      24.825  15.306  30.808  0.00  0.00    +0.002 C 
ATOM     11  CD2 LEU A   2      24.382  14.616  32.103  0.00  0.00    +0.000 C 
ATOM     12  CD1 LEU A   2      24.464  14.454  29.597  0.00  0.00    +0.000 C 
ENDBRANCH   9  10
ENDBRANCH   6   9
ENDBRANCH   4   6
ENDBRANCH   1   2
BRANCH   1  13
ATOM     13  N   LYS A   1      22.868  21.375  30.185  0.00  0.00    -0.238 NA
ATOM     14  H   LYS A   1      22.003  21.417  29.609  0.00  0.00    +0.142 HD
ENDBRANCH   1  13
BRANCH   1  15
ATOM     15  CB  LYS A   1      21.298  20.793  31.952  0.00  0.00    +0.026 C 
BRANCH  15  16
ATOM     16  CG  LYS A   1      21.068  20.323  33.376  0.00  0.00    -0.000 C 
BRANCH  16  17
ATOM     17  CD  LYS A   1      21.116  21.479  34.356  0.00  0.00    -0.024 C 
BRANCH  17  18
ATOM     18  CE  LYS A   1      20.516  21.074  35.697  0.00  0.00    -0.086 C 
BRANCH  18  19
ATOM     19  NZ  LYS A   1      20.887  22.046  36.765  0.00  0.00    +0.380 N 
ATOM     20  HZ1 LYS A   1      20.465  21.746  37.667  0.00  0.00    -0.089 HD
ATOM     21  HZ2 LYS A   1      21.922  22.078  36.859  0.00  0.00    -0.089 HD
ATOM     22  HZ3 LYS A   1      20.531  22.990  36.512  0.00  0.00    -0.089 HD
ENDBRANCH  18  19
ENDBRANCH  17  18
ENDBRANCH  16  17
ENDBRANCH  15  16
ENDBRANCH   1  15
TORSDOF 11
REMARK  Name = ../refined-set-2016/4i9h/4i9h_pocket.pdb
REMARK  282 active torsions:
REMARK  status: ('A' for Active; 'I' for Inactive)
REMARK    1  A    between atoms: _1  and  _3
REMARK    2  A    between atoms: _3  and  _4
REMARK    3  A    between atoms: _3  and  _6
REMARK    4  A    between atoms: _9  and  _11
REMARK    5  A    between atoms: _11  and  _12
REMARK    6  A    between atoms: _11  and  _14
REMARK    7  A    between atoms: _17  and  _19
REMARK    8  A    between atoms: _19  and  _20
REMARK    9  A    between atoms: _22  and  _24
REMARK   10  A    between atoms: _24  and  _25
REMARK   11  A    between atoms: _24  and  _27
REMARK   12  A    between atoms: _30  and  _32
REMARK   13  A    between atoms: _32  and  _33
REMARK   14  A    between atoms: _35  and  _37
REMARK   15  A    between atoms: _37  and  _38
REMARK   16  A    between atoms: _41  and  _43
REMARK   17  A    between atoms: _43  and  _44
REMARK   18  A    between atoms: _43  and  _46
REMARK   19  A    between atoms: _49  and  _51
REMARK   20  A    between atoms: _51  and  _52
REMARK   21  A    between atoms: _54  and  _56
REMARK   22  A    between atoms: _56  and  _57
REMARK   23  A    between atoms: _56  and  _59
REMARK   24  A    between atoms: _59  and  _60
REMARK   25  A    between atoms: _60  and  _61
REMARK   26  A    between atoms: _63  and  _65
REMARK   27  A    between atoms: _65  and  _66
REMARK   28  A    between atoms: _65  and  _68
REMARK   29  A    between atoms: _70  and  _72
REMARK   30  A    between atoms: _72  and  _73
REMARK   31  A    between atoms: _72  and  _75
REMARK   32  A    between atoms: _75  and  _76
REMARK   33  A    between atoms: _79  and  _81
REMARK   34  A    between atoms: _81  and  _82
REMARK   35  A    between atoms: _81  and  _84
REMARK   36  A    between atoms: _87  and  _89
REMARK   37  A    between atoms: _89  and  _90
REMARK   38  A    between atoms: _89  and  _92
REMARK   39  A    between atoms: _92  and  _93
REMARK   40  A    between atoms: _96  and  _98
REMARK   41  A    between atoms: _98  and  _99
REMARK   42  A    between atoms: _98  and  _101
REMARK   43  A    between atoms: _104  and  _106
REMARK   44  A    between atoms: _106  and  _107
REMARK   45  A    between atoms: _106  and  _109
REMARK   46  A    between atoms: _109  and  _110
REMARK   47  A    between atoms: _110  and  _111
REMARK   48  A    between atoms: _113  and  _115
REMARK   49  A    between atoms: _115  and  _116
REMARK   50  A    between atoms: _115  and  _118
REMARK   51  A    between atoms: _118  and  _119
REMARK   52  A    between atoms: _119  and  _120
REMARK   53  A    between atoms: _120  and  _121
REMARK   54  A    between atoms: _121  and  _122
REMARK   55  A    between atoms: _126  and  _128
REMARK   56  A    between atoms: _128  and  _129
REMARK   57  A    between atoms: _128  and  _131
REMARK   58  A    between atoms: _131  and  _132
REMARK   59  A    between atoms: _135  and  _137
REMARK   60  A    between atoms: _137  and  _138
REMARK   61  A    between atoms: _137  and  _140
REMARK   62  A    between atoms: _140  and  _141
REMARK   63  A    between atoms: _141  and  _142
REMARK   64  A    between atoms: _142  and  _143
REMARK   65  A    between atoms: _143  and  _144
REMARK   66  A    between atoms: _148  and  _150
REMARK   67  A    between atoms: _150  and  _151
REMARK   68  A    between atoms: _150  and  _153
REMARK   69  A    between atoms: _153  and  _154
REMARK   70  A    between atoms: _159  and  _160
REMARK   71  A    between atoms: _162  and  _164
REMARK   72  A    between atoms: _164  and  _165
REMARK   73  A    between atoms: _164  and  _167
REMARK   74  A    between atoms: _167  and  _168
REMARK   75  A    between atoms: _171  and  _173
REMARK   76  A    between atoms: _173  and  _174
REMARK   77  A    between atoms: _173  and  _176
REMARK   78  A    between atoms: _176  and  _177
REMARK   79  A    between atoms: _180  and  _182
REMARK   80  A    between atoms: _182  and  _183
REMARK   81  A    between atoms: _182  and  _185
REMARK   82  A    between atoms: _185  and  _186
REMARK   83  A    between atoms: _189  and  _191
REMARK   84  A    between atoms: _191  and  _192
REMARK   85  A    between atoms: _195  and  _197
REMARK   86  A    between atoms: _197  and  _198
REMARK   87  A    between atoms: _200  and  _202
REMARK   88  A    between atoms: _202  and  _203
REMARK   89  A    between atoms: _206  and  _208
REMARK   90  A    between atoms: _208  and  _209
REMARK   91  A    between atoms: _208  and  _211
REMARK   92  A    between atoms: _211  and  _212
REMARK   93  A    between atoms: _212  and  _213
REMARK   94  A    between atoms: _213  and  _214
REMARK   95  A    between atoms: _223  and  _225
REMARK   96  A    between atoms: _225  and  _226
REMARK   97  A    between atoms: _225  and  _228
REMARK   98  A    between atoms: _228  and  _229
REMARK   99  A    between atoms: _229  and  _230
REMARK  100  A    between atoms: _235  and  _237
REMARK  101  A    between atoms: _237  and  _238
REMARK  102  A    between atoms: _237  and  _240
REMARK  103  A    between atoms: _240  and  _241
REMARK  104  A    between atoms: _246  and  _248
REMARK  105  A    between atoms: _248  and  _249
REMARK  106  A    between atoms: _248  and  _251
REMARK  107  A    between atoms: _251  and  _252
REMARK  108  A    between atoms: _255  and  _257
REMARK  109  A    between atoms: _257  and  _258
REMARK  110  A    between atoms: _257  and  _260
REMARK  111  A    between atoms: _260  and  _261
REMARK  112  A    between atoms: _261  and  _262
REMARK  113  A    between atoms: _267  and  _269
REMARK  114  A    between atoms: _269  and  _270
REMARK  115  A    between atoms: _269  and  _272
REMARK  116  A    between atoms: _272  and  _273
REMARK  117  A    between atoms: _273  and  _274
REMARK  118  A    between atoms: _274  and  _275
REMARK  119  A    between atoms: _284  and  _286
REMARK  120  A    between atoms: _286  and  _287
REMARK  121  A    between atoms: _286  and  _289
REMARK  122  A    between atoms: _289  and  _290
REMARK  123  A    between atoms: _295  and  _297
REMARK  124  A    between atoms: _297  and  _298
REMARK  125  A    between atoms: _297  and  _300
REMARK  126  A    between atoms: _303  and  _305
REMARK  127  A    between atoms: _305  and  _306
REMARK  128  A    between atoms: _305  and  _308
REMARK  129  A    between atoms: _308  and  _309
REMARK  130  A    between atoms: _314  and  _316
REMARK  131  A    between atoms: _316  and  _317
REMARK  132  A    between atoms: _316  and  _319
REMARK  133  A    between atoms: _319  and  _320
REMARK  134  A    between atoms: _323  and  _325
REMARK  135  A    between atoms: _325  and  _326
REMARK  136  A    between atoms: _325  and  _328
REMARK  137  A    between atoms: _328  and  _329
REMARK  138  A    between atoms: _335  and  _337
REMARK  139  A    between atoms: _337  and  _338
REMARK  140  A    between atoms: _337  and  _340
REMARK  141  A    between atoms: _340  and  _341
REMARK  142  A    between atoms: _341  and  _342
REMARK  143  A    between atoms: _342  and  _343
REMARK  144  A    between atoms: _343  and  _344
REMARK  145  A    between atoms: _348  and  _350
REMARK  146  A    between atoms: _350  and  _351
REMARK  147  A    between atoms: _350  and  _353
REMARK  148  A    between atoms: _353  and  _354
REMARK  149  A    between atoms: _360  and  _362
REMARK  150  A    between atoms: _362  and  _363
REMARK  151  A    between atoms: _362  and  _365
REMARK  152  A    between atoms: _365  and  _366
REMARK  153  A    between atoms: _369  and  _371
REMARK  154  A    between atoms: _371  and  _372
REMARK  155  A    between atoms: _371  and  _374
REMARK  156  A    between atoms: _374  and  _375
REMARK  157  A    between atoms: _378  and  _380
REMARK  158  A    between atoms: _380  and  _381
REMARK  159  A    between atoms: _380  and  _383
REMARK  160  A    between atoms: _383  and  _384
REMARK  161  A    between atoms: _389  and  _391
REMARK  162  A    between atoms: _391  and  _392
REMARK  163  A    between atoms: _391  and  _394
REMARK  164  A    between atoms: _394  and  _395
REMARK  165  A    between atoms: _398  and  _400
REMARK  166  A    between atoms: _400  and  _401
REMARK  167  A    between atoms: _400  and  _403
REMARK  168  A    between atoms: _406  and  _408
REMARK  169  A    between atoms: _408  and  _409
REMARK  170  A    between atoms: _408  and  _411
REMARK  171  A    between atoms: _414  and  _416
REMARK  172  A    between atoms: _416  and  _417
REMARK  173  A    between atoms: _416  and  _419
REMARK  174  A    between atoms: _419  and  _420
REMARK  175  A    between atoms: _422  and  _424
REMARK  176  A    between atoms: _424  and  _425
REMARK  177  A    between atoms: _424  and  _427
REMARK  178  A    between atoms: _427  and  _428
REMARK  179  A    between atoms: _433  and  _435
REMARK  180  A    between atoms: _435  and  _436
REMARK  181  A    between atoms: _435  and  _438
REMARK  182  A    between atoms: _441  and  _443
REMARK  183  A    between atoms: _443  and  _444
REMARK  184  A    between atoms: _443  and  _446
REMARK  185  A    between atoms: _446  and  _447
REMARK  186  A    between atoms: _450  and  _452
REMARK  187  A    between atoms: _452  and  _453
REMARK  188  A    between atoms: _452  and  _455
REMARK  189  A    between atoms: _455  and  _456
REMARK  190  A    between atoms: _458  and  _460
REMARK  191  A    between atoms: _460  and  _461
REMARK  192  A    between atoms: _463  and  _465
REMARK  193  A    between atoms: _465  and  _466
REMARK  194  A    between atoms: _465  and  _468
REMARK  195  A    between atoms: _468  and  _469
REMARK  196  A    between atoms: _472  and  _474
REMARK  197  A    between atoms: _474  and  _475
REMARK  198  A    between atoms: _474  and  _477
REMARK  199  A    between atoms: _477  and  _478
REMARK  200  A    between atoms: _481  and  _483
REMARK  201  A    between atoms: _483  and  _484
REMARK  202  A    between atoms: _483  and  _486
REMARK  203  A    between atoms: _486  and  _487
REMARK  204  A    between atoms: _487  and  _488
REMARK  205  A    between atoms: _488  and  _489
REMARK  206  A    between atoms: _498  and  _500
REMARK  207  A    between atoms: _500  and  _501
REMARK  208  A    between atoms: _500  and  _503
REMARK  209  A    between atoms: _503  and  _504
REMARK  210  A    between atoms: _509  and  _511
REMARK  211  A    between atoms: _511  and  _512
REMARK  212  A    between atoms: _514  and  _516
REMARK  213  A    between atoms: _516  and  _517
REMARK  214  A    between atoms: _516  and  _519
REMARK  215  A    between atoms: _522  and  _524
REMARK  216  A    between atoms: _524  and  _525
REMARK  217  A    between atoms: _524  and  _527
REMARK  218  A    between atoms: _530  and  _532
REMARK  219  A    between atoms: _532  and  _533
REMARK  220  A    between atoms: _532  and  _535
REMARK  221  A    between atoms: _535  and  _536
REMARK  222  A    between atoms: _539  and  _541
REMARK  223  A    between atoms: _541  and  _542
REMARK  224  A    between atoms: _541  and  _544
REMARK  225  A    between atoms: _544  and  _545
REMARK  226  A    between atoms: _547  and  _549
REMARK  227  A    between atoms: _549  and  _550
REMARK  228  A    between atoms: _553  and  _555
REMARK  229  A    between atoms: _555  and  _556
REMARK  230  A    between atoms: _555  and  _558
REMARK  231  A    between atoms: _558  and  _559
REMARK  232  A    between atoms: _564  and  _565
REMARK  233  A    between atoms: _567  and  _569
REMARK  234  A    between atoms: _569  and  _570
REMARK  235  A    between atoms: _569  and  _572
REMARK  236  A    between atoms: _572  and  _573
REMARK  237  A    between atoms: _573  and  _574
REMARK  238  A    between atoms: _577  and  _579
REMARK  239  A    between atoms: _579  and  _580
REMARK  240  A    between atoms: _579  and  _582
REMARK  241  A    between atoms: _585  and  _587
REMARK  242  A    between atoms: _587  and  _588
REMARK  243  A    between atoms: _587  and  _590
REMARK  244  A    between atoms: _590  and  _591
REMARK  245  A    between atoms: _594  and  _596
REMARK  246  A    between atoms: _596  and  _597
REMARK  247  A    between atoms: _599  and  _601
REMARK  248  A    between atoms: _601  and  _602
REMARK  249  A    between atoms: _601  and  _604
REMARK  250  A    between atoms: _604  and  _605
REMARK  251  A    between atoms: _610  and  _611
REMARK  252  A    between atoms: _613  and  _615
REMARK  253  A    between atoms: _615  and  _616
REMARK  254  A    between atoms: _615  and  _618
REMARK  255  A    between atoms: _618  and  _619
REMARK  256  A    between atoms: _622  and  _624
REMARK  257  A    between atoms: _624  and  _625
REMARK  258  A    between atoms: _624  and  _627
REMARK  259  A    between atoms: _627  and  _628
REMARK  260  A    between atoms: _631  and  _633
REMARK  261  A    between atoms: _633  and  _634
REMARK  262  A    between atoms: _637  and  _639
REMARK  263  A    between atoms: _639  and  _640
REMARK  264  A    between atoms: _639  and  _642
REMARK  265  A    between atoms: _642  and  _643
REMARK  266  A    between atoms: _646  and  _648
REMARK  267  A    between atoms: _648  and  _649
REMARK  268  A    between atoms: _651  and  _653
REMARK  269  A    between atoms: _653  and  _654
REMARK  270  A    between atoms: _653  and  _656
REMARK  271  A    between atoms: _656  and  _657
REMARK  272  A    between atoms: _659  and  _661
REMARK  273  A    between atoms: _661  and  _662
REMARK  274  A    between atoms: _661  and  _664
REMARK  275  A    between atoms: _667  and  _669
REMARK  276  A    between atoms: _669  and  _670
REMARK  277  A    between atoms: _669  and  _672
REMARK  278  A    between atoms: _672  and  _673
REMARK  279  A    between atoms: _676  and  _678
REMARK  280  A    between atoms: _678  and  _679
REMARK  281  A    between atoms: _678  and  _681
REMARK  282  A    between atoms: _681  and  _682
REMARK                            x       y       z     vdW  Elec       q    Type
REMARK                         _______ _______ _______ _____ _____    ______ ____
ROOT
ATOM      1  CG  LYS A   1      23.516  12.409  23.977  0.00  0.00    -0.000 C 
ENDROOT
BRANCH   1   2
ATOM      2  CB  LYS A   1      22.726  12.448  25.279  0.00  0.00    +0.025 C 
BRANCH   2   3
ATOM      3  CA  LYS A   1      23.351  11.621  26.405  0.00  0.00    +0.133 C 
BRANCH   3   4
ATOM      4  N   LYS A   1      24.692  12.113  26.710  0.00  0.00    -0.239 NA
ATOM      5  H   LYS A   1      25.155  12.759  26.040  0.00  0.00    +0.142 HD
ENDBRANCH   3   4
BRANCH   3   6
ATOM      6  C   LYS A   1      23.417  10.158  25.981  0.00  0.00    +0.224 C 
ATOM      7  O   LYS A   1      22.424   9.435  26.035  0.00  0.00    -0.287 OA
ENDBRANCH   3   6
ENDBRANCH   2   3
ENDBRANCH   1   2
BRANCH   1   8
ATOM      8  CD  LYS A   1      22.818  13.198  22.881  0.00  0.00    -0.024 C 
BRANCH   8   9
ATOM      9  CE  LYS A   1      23.604  13.157  21.578  0.00  0.00    -0.086 C 
BRANCH   9  10
ATOM     10  NZ  LYS A   1      22.830  13.787  20.469  0.00  0.00    +0.380 N 
ATOM     11  HZ1 LYS A   1      22.629  14.779  20.708  0.00  0.00    -0.089 HD
ATOM     12  HZ2 LYS A   1      21.935  13.273  20.337  0.00  0.00    -0.089 HD
ATOM     13  HZ3 LYS A   1      23.388  13.746  19.592  0.00  0.00    -0.089 HD
ENDBRANCH   9  10
ENDBRANCH   8   9
ENDBRANCH   1   8
TORSDOF 7
REMARK  Name = ../refined-set-2016/4i9h/4i9h_pocket.pdb
REMARK  282 active torsions:
REMARK  status: ('A' for Active; 'I' for Inactive)
REMARK    1  A    between atoms: _1  and  _3
REMARK    2  A    between atoms: _3  and  _4
REMARK    3  A    between atoms: _3  and  _6
REMARK    4  A    between atoms: _9  and  _11
REMARK    5  A    between atoms: _11  and  _12
REMARK    6  A    between atoms: _11  and  _14
REMARK    7  A    between atoms: _17  and  _19
REMARK    8  A    between atoms: _19  and  _20
REMARK    9  A    between atoms: _22  and  _24
REMARK   10  A    between atoms: _24  and  _25
REMARK   11  A    between atoms: _24  and  _27
REMARK   12  A    between atoms: _30  and  _32
REMARK   13  A    between atoms: _32  and  _33
REMARK   14  A    between atoms: _35  and  _37
REMARK   15  A    between atoms: _37  and  _38
REMARK   16  A    between atoms: _41  and  _43
REMARK   17  A    between atoms: _43  and  _44
REMARK   18  A    between atoms: _43  and  _46
REMARK   19  A    between atoms: _49  and  _51
REMARK   20  A    between atoms: _51  and  _52
REMARK   21  A    between atoms: _54  and  _56
REMARK   22  A    between atoms: _56  and  _57
REMARK   23  A    between atoms: _56  and  _59
REMARK   24  A    between atoms: _59  and  _60
REMARK   25  A    between atoms: _60  and  _61
REMARK   26  A    between atoms: _63  and  _65
REMARK   27  A    between atoms: _65  and  _66
REMARK   28  A    between atoms: _65  and  _68
REMARK   29  A    between atoms: _70  and  _72
REMARK   30  A    between atoms: _72  and  _73
REMARK   31  A    between atoms: _72  and  _75
REMARK   32  A    between atoms: _75  and  _76
REMARK   33  A    between atoms: _79  and  _81
REMARK   34  A    between atoms: _81  and  _82
REMARK   35  A    between atoms: _81  and  _84
REMARK   36  A    between atoms: _87  and  _89
REMARK   37  A    between atoms: _89  and  _90
REMARK   38  A    between atoms: _89  and  _92
REMARK   39  A    between atoms: _92  and  _93
REMARK   40  A    between atoms: _96  and  _98
REMARK   41  A    between atoms: _98  and  _99
REMARK   42  A    between atoms: _98  and  _101
REMARK   43  A    between atoms: _104  and  _106
REMARK   44  A    between atoms: _106  and  _107
REMARK   45  A    between atoms: _106  and  _109
REMARK   46  A    between atoms: _109  and  _110
REMARK   47  A    between atoms: _110  and  _111
REMARK   48  A    between atoms: _113  and  _115
REMARK   49  A    between atoms: _115  and  _116
REMARK   50  A    between atoms: _115  and  _118
REMARK   51  A    between atoms: _118  and  _119
REMARK   52  A    between atoms: _119  and  _120
REMARK   53  A    between atoms: _120  and  _121
REMARK   54  A    between atoms: _121  and  _122
REMARK   55  A    between atoms: _126  and  _128
REMARK   56  A    between atoms: _128  and  _129
REMARK   57  A    between atoms: _128  and  _131
REMARK   58  A    between atoms: _131  and  _132
REMARK   59  A    between atoms: _135  and  _137
REMARK   60  A    between atoms: _137  and  _138
REMARK   61  A    between atoms: _137  and  _140
REMARK   62  A    between atoms: _140  and  _141
REMARK   63  A    between atoms: _141  and  _142
REMARK   64  A    between atoms: _142  and  _143
REMARK   65  A    between atoms: _143  and  _144
REMARK   66  A    between atoms: _148  and  _150
REMARK   67  A    between atoms: _150  and  _151
REMARK   68  A    between atoms: _150  and  _153
REMARK   69  A    between atoms: _153  and  _154
REMARK   70  A    between atoms: _159  and  _160
REMARK   71  A    between atoms: _162  and  _164
REMARK   72  A    between atoms: _164  and  _165
REMARK   73  A    between atoms: _164  and  _167
REMARK   74  A    between atoms: _167  and  _168
REMARK   75  A    between atoms: _171  and  _173
REMARK   76  A    between atoms: _173  and  _174
REMARK   77  A    between atoms: _173  and  _176
REMARK   78  A    between atoms: _176  and  _177
REMARK   79  A    between atoms: _180  and  _182
REMARK   80  A    between atoms: _182  and  _183
REMARK   81  A    between atoms: _182  and  _185
REMARK   82  A    between atoms: _185  and  _186
REMARK   83  A    between atoms: _189  and  _191
REMARK   84  A    between atoms: _191  and  _192
REMARK   85  A    between atoms: _195  and  _197
REMARK   86  A    between atoms: _197  and  _198
REMARK   87  A    between atoms: _200  and  _202
REMARK   88  A    between atoms: _202  and  _203
REMARK   89  A    between atoms: _206  and  _208
REMARK   90  A    between atoms: _208  and  _209
REMARK   91  A    between atoms: _208  and  _211
REMARK   92  A    between atoms: _211  and  _212
REMARK   93  A    between atoms: _212  and  _213
REMARK   94  A    between atoms: _213  and  _214
REMARK   95  A    between atoms: _223  and  _225
REMARK   96  A    between atoms: _225  and  _226
REMARK   97  A    between atoms: _225  and  _228
REMARK   98  A    between atoms: _228  and  _229
REMARK   99  A    between atoms: _229  and  _230
REMARK  100  A    between atoms: _235  and  _237
REMARK  101  A    between atoms: _237  and  _238
REMARK  102  A    between atoms: _237  and  _240
REMARK  103  A    between atoms: _240  and  _241
REMARK  104  A    between atoms: _246  and  _248
REMARK  105  A    between atoms: _248  and  _249
REMARK  106  A    between atoms: _248  and  _251
REMARK  107  A    between atoms: _251  and  _252
REMARK  108  A    between atoms: _255  and  _257
REMARK  109  A    between atoms: _257  and  _258
REMARK  110  A    between atoms: _257  and  _260
REMARK  111  A    between atoms: _260  and  _261
REMARK  112  A    between atoms: _261  and  _262
REMARK  113  A    between atoms: _267  and  _269
REMARK  114  A    between atoms: _269  and  _270
REMARK  115  A    between atoms: _269  and  _272
REMARK  116  A    between atoms: _272  and  _273
REMARK  117  A    between atoms: _273  and  _274
REMARK  118  A    between atoms: _274  and  _275
REMARK  119  A    between atoms: _284  and  _286
REMARK  120  A    between atoms: _286  and  _287
REMARK  121  A    between atoms: _286  and  _289
REMARK  122  A    between atoms: _289  and  _290
REMARK  123  A    between atoms: _295  and  _297
REMARK  124  A    between atoms: _297  and  _298
REMARK  125  A    between atoms: _297  and  _300
REMARK  126  A    between atoms: _303  and  _305
REMARK  127  A    between atoms: _305  and  _306
REMARK  128  A    between atoms: _305  and  _308
REMARK  129  A    between atoms: _308  and  _309
REMARK  130  A    between atoms: _314  and  _316
REMARK  131  A    between atoms: _316  and  _317
REMARK  132  A    between atoms: _316  and  _319
REMARK  133  A    between atoms: _319  and  _320
REMARK  134  A    between atoms: _323  and  _325
REMARK  135  A    between atoms: _325  and  _326
REMARK  136  A    between atoms: _325  and  _328
REMARK  137  A    between atoms: _328  and  _329
REMARK  138  A    between atoms: _335  and  _337
REMARK  139  A    between atoms: _337  and  _338
REMARK  140  A    between atoms: _337  and  _340
REMARK  141  A    between atoms: _340  and  _341
REMARK  142  A    between atoms: _341  and  _342
REMARK  143  A    between atoms: _342  and  _343
REMARK  144  A    between atoms: _343  and  _344
REMARK  145  A    between atoms: _348  and  _350
REMARK  146  A    between atoms: _350  and  _351
REMARK  147  A    between atoms: _350  and  _353
REMARK  148  A    between atoms: _353  and  _354
REMARK  149  A    between atoms: _360  and  _362
REMARK  150  A    between atoms: _362  and  _363
REMARK  151  A    between atoms: _362  and  _365
REMARK  152  A    between atoms: _365  and  _366
REMARK  153  A    between atoms: _369  and  _371
REMARK  154  A    between atoms: _371  and  _372
REMARK  155  A    between atoms: _371  and  _374
REMARK  156  A    between atoms: _374  and  _375
REMARK  157  A    between atoms: _378  and  _380
REMARK  158  A    between atoms: _380  and  _381
REMARK  159  A    between atoms: _380  and  _383
REMARK  160  A    between atoms: _383  and  _384
REMARK  161  A    between atoms: _389  and  _391
REMARK  162  A    between atoms: _391  and  _392
REMARK  163  A    between atoms: _391  and  _394
REMARK  164  A    between atoms: _394  and  _395
REMARK  165  A    between atoms: _398  and  _400
REMARK  166  A    between atoms: _400  and  _401
REMARK  167  A    between atoms: _400  and  _403
REMARK  168  A    between atoms: _406  and  _408
REMARK  169  A    between atoms: _408  and  _409
REMARK  170  A    between atoms: _408  and  _411
REMARK  171  A    between atoms: _414  and  _416
REMARK  172  A    between atoms: _416  and  _417
REMARK  173  A    between atoms: _416  and  _419
REMARK  174  A    between atoms: _419  and  _420
REMARK  175  A    between atoms: _422  and  _424
REMARK  176  A    between atoms: _424  and  _425
REMARK  177  A    between atoms: _424  and  _427
REMARK  178  A    between atoms: _427  and  _428
REMARK  179  A    between atoms: _433  and  _435
REMARK  180  A    between atoms: _435  and  _436
REMARK  181  A    between atoms: _435  and  _438
REMARK  182  A    between atoms: _441  and  _443
REMARK  183  A    between atoms: _443  and  _444
REMARK  184  A    between atoms: _443  and  _446
REMARK  185  A    between atoms: _446  and  _447
REMARK  186  A    between atoms: _450  and  _452
REMARK  187  A    between atoms: _452  and  _453
REMARK  188  A    between atoms: _452  and  _455
REMARK  189  A    between atoms: _455  and  _456
REMARK  190  A    between atoms: _458  and  _460
REMARK  191  A    between atoms: _460  and  _461
REMARK  192  A    between atoms: _463  and  _465
REMARK  193  A    between atoms: _465  and  _466
REMARK  194  A    between atoms: _465  and  _468
REMARK  195  A    between atoms: _468  and  _469
REMARK  196  A    between atoms: _472  and  _474
REMARK  197  A    between atoms: _474  and  _475
REMARK  198  A    between atoms: _474  and  _477
REMARK  199  A    between atoms: _477  and  _478
REMARK  200  A    between atoms: _481  and  _483
REMARK  201  A    between atoms: _483  and  _484
REMARK  202  A    between atoms: _483  and  _486
REMARK  203  A    between atoms: _486  and  _487
REMARK  204  A    between atoms: _487  and  _488
REMARK  205  A    between atoms: _488  and  _489
REMARK  206  A    between atoms: _498  and  _500
REMARK  207  A    between atoms: _500  and  _501
REMARK  208  A    between atoms: _500  and  _503
REMARK  209  A    between atoms: _503  and  _504
REMARK  210  A    between atoms: _509  and  _511
REMARK  211  A    between atoms: _511  and  _512
REMARK  212  A    between atoms: _514  and  _516
REMARK  213  A    between atoms: _516  and  _517
REMARK  214  A    between atoms: _516  and  _519
REMARK  215  A    between atoms: _522  and  _524
REMARK  216  A    between atoms: _524  and  _525
REMARK  217  A    between atoms: _524  and  _527
REMARK  218  A    between atoms: _530  and  _532
REMARK  219  A    between atoms: _532  and  _533
REMARK  220  A    between atoms: _532  and  _535
REMARK  221  A    between atoms: _535  and  _536
REMARK  222  A    between atoms: _539  and  _541
REMARK  223  A    between atoms: _541  and  _542
REMARK  224  A    between atoms: _541  and  _544
REMARK  225  A    between atoms: _544  and  _545
REMARK  226  A    between atoms: _547  and  _549
REMARK  227  A    between atoms: _549  and  _550
REMARK  228  A    between atoms: _553  and  _555
REMARK  229  A    between atoms: _555  and  _556
REMARK  230  A    between atoms: _555  and  _558
REMARK  231  A    between atoms: _558  and  _559
REMARK  232  A    between atoms: _564  and  _565
REMARK  233  A    between atoms: _567  and  _569
REMARK  234  A    between atoms: _569  and  _570
REMARK  235  A    between atoms: _569  and  _572
REMARK  236  A    between atoms: _572  and  _573
REMARK  237  A    between atoms: _573  and  _574
REMARK  238  A    between atoms: _577  and  _579
REMARK  239  A    between atoms: _579  and  _580
REMARK  240  A    between atoms: _579  and  _582
REMARK  241  A    between atoms: _585  and  _587
REMARK  242  A    between atoms: _587  and  _588
REMARK  243  A    between atoms: _587  and  _590
REMARK  244  A    between atoms: _590  and  _591
REMARK  245  A    between atoms: _594  and  _596
REMARK  246  A    between atoms: _596  and  _597
REMARK  247  A    between atoms: _599  and  _601
REMARK  248  A    between atoms: _601  and  _602
REMARK  249  A    between atoms: _601  and  _604
REMARK  250  A    between atoms: _604  and  _605
REMARK  251  A    between atoms: _610  and  _611
REMARK  252  A    between atoms: _613  and  _615
REMARK  253  A    between atoms: _615  and  _616
REMARK  254  A    between atoms: _615  and  _618
REMARK  255  A    between atoms: _618  and  _619
REMARK  256  A    between atoms: _622  and  _624
REMARK  257  A    between atoms: _624  and  _625
REMARK  258  A    between atoms: _624  and  _627
REMARK  259  A    between atoms: _627  and  _628
REMARK  260  A    between atoms: _631  and  _633
REMARK  261  A    between atoms: _633  and  _634
REMARK  262  A    between atoms: _637  and  _639
REMARK  263  A    between atoms: _639  and  _640
REMARK  264  A    between atoms: _639  and  _642
REMARK  265  A    between atoms: _642  and  _643
REMARK  266  A    between atoms: _646  and  _648
REMARK  267  A    between atoms: _648  and  _649
REMARK  268  A    between atoms: _651  and  _653
REMARK  269  A    between atoms: _653  and  _654
REMARK  270  A    between atoms: _653  and  _656
REMARK  271  A    between atoms: _656  and  _657
REMARK  272  A    between atoms: _659  and  _661
REMARK  273  A    between atoms: _661  and  _662
REMARK  274  A    between atoms: _661  and  _664
REMARK  275  A    between atoms: _667  and  _669
REMARK  276  A    between atoms: _669  and  _670
REMARK  277  A    between atoms: _669  and  _672
REMARK  278  A    between atoms: _672  and  _673
REMARK  279  A    between atoms: _676  and  _678
REMARK  280  A    between atoms: _678  and  _679
REMARK  281  A    between atoms: _678  and  _681
REMARK  282  A    between atoms: _681  and  _682
REMARK                            x       y       z     vdW  Elec       q    Type
REMARK                         _______ _______ _______ _____ _____    ______ ____
ROOT
ATOM      1  CG  TYR A   1      22.236   5.260  28.340  0.00  0.00    -0.020 A 
ATOM      2  CD2 TYR A   1      21.933   5.123  29.692  0.00  0.00    -0.001 A 
ATOM      3  CE2 TYR A   1      20.873   5.806  30.255  0.00  0.00    +0.036 A 
ATOM      4  CZ  TYR A   1      20.104   6.644  29.470  0.00  0.00    +0.134 A 
ATOM      5  CE1 TYR A   1      20.385   6.794  28.131  0.00  0.00    +0.036 A 
ATOM      6  CD1 TYR A   1      21.440   6.105  27.574  0.00  0.00    -0.001 A 
ENDROOT
BRANCH   4   7
ATOM      7  OH  TYR A   1      19.058   7.352  30.028  0.00  0.00    -0.506 OA
ATOM      8  HH  TYR A   1      18.619   7.897  29.328  0.00  0.00    +0.292 HD
ENDBRANCH   4   7
BRANCH   1   9
ATOM      9  CB  TYR A   1      23.415   4.531  27.726  0.00  0.00    +0.051 C 
BRANCH   9  10
ATOM     10  CA  TYR A   1      24.644   5.428  27.549  0.00  0.00    +0.137 C 
BRANCH  10  11
ATOM     11  N   TYR A   1      24.479   6.288  26.382  0.00  0.00    -0.239 NA
ATOM     12  H   TYR A   1      23.814   6.014  25.630  0.00  0.00    +0.142 HD
ENDBRANCH  10  11
BRANCH  10  13
ATOM     13  C   TYR A   1      25.910   4.579  27.530  0.00  0.00    +0.224 C 
ATOM     14  O   TYR A   1      26.131   3.771  28.431  0.00  0.00    -0.287 OA
ENDBRANCH  10  13
ENDBRANCH   9  10
ENDBRANCH   1   9
TORSDOF 5
REMARK  Name = ../refined-set-2016/4i9h/4i9h_pocket.pdb
REMARK  282 active torsions:
REMARK  status: ('A' for Active; 'I' for Inactive)
REMARK    1  A    between atoms: _1  and  _3
REMARK    2  A    between atoms: _3  and  _4
REMARK    3  A    between atoms: _3  and  _6
REMARK    4  A    between atoms: _9  and  _11
REMARK    5  A    between atoms: _11  and  _12
REMARK    6  A    between atoms: _11  and  _14
REMARK    7  A    between atoms: _17  and  _19
REMARK    8  A    between atoms: _19  and  _20
REMARK    9  A    between atoms: _22  and  _24
REMARK   10  A    between atoms: _24  and  _25
REMARK   11  A    between atoms: _24  and  _27
REMARK   12  A    between atoms: _30  and  _32
REMARK   13  A    between atoms: _32  and  _33
REMARK   14  A    between atoms: _35  and  _37
REMARK   15  A    between atoms: _37  and  _38
REMARK   16  A    between atoms: _41  and  _43
REMARK   17  A    between atoms: _43  and  _44
REMARK   18  A    between atoms: _43  and  _46
REMARK   19  A    between atoms: _49  and  _51
REMARK   20  A    between atoms: _51  and  _52
REMARK   21  A    between atoms: _54  and  _56
REMARK   22  A    between atoms: _56  and  _57
REMARK   23  A    between atoms: _56  and  _59
REMARK   24  A    between atoms: _59  and  _60
REMARK   25  A    between atoms: _60  and  _61
REMARK   26  A    between atoms: _63  and  _65
REMARK   27  A    between atoms: _65  and  _66
REMARK   28  A    between atoms: _65  and  _68
REMARK   29  A    between atoms: _70  and  _72
REMARK   30  A    between atoms: _72  and  _73
REMARK   31  A    between atoms: _72  and  _75
REMARK   32  A    between atoms: _75  and  _76
REMARK   33  A    between atoms: _79  and  _81
REMARK   34  A    between atoms: _81  and  _82
REMARK   35  A    between atoms: _81  and  _84
REMARK   36  A    between atoms: _87  and  _89
REMARK   37  A    between atoms: _89  and  _90
REMARK   38  A    between atoms: _89  and  _92
REMARK   39  A    between atoms: _92  and  _93
REMARK   40  A    between atoms: _96  and  _98
REMARK   41  A    between atoms: _98  and  _99
REMARK   42  A    between atoms: _98  and  _101
REMARK   43  A    between atoms: _104  and  _106
REMARK   44  A    between atoms: _106  and  _107
REMARK   45  A    between atoms: _106  and  _109
REMARK   46  A    between atoms: _109  and  _110
REMARK   47  A    between atoms: _110  and  _111
REMARK   48  A    between atoms: _113  and  _115
REMARK   49  A    between atoms: _115  and  _116
REMARK   50  A    between atoms: _115  and  _118
REMARK   51  A    between atoms: _118  and  _119
REMARK   52  A    between atoms: _119  and  _120
REMARK   53  A    between atoms: _120  and  _121
REMARK   54  A    between atoms: _121  and  _122
REMARK   55  A    between atoms: _126  and  _128
REMARK   56  A    between atoms: _128  and  _129
REMARK   57  A    between atoms: _128  and  _131
REMARK   58  A    between atoms: _131  and  _132
REMARK   59  A    between atoms: _135  and  _137
REMARK   60  A    between atoms: _137  and  _138
REMARK   61  A    between atoms: _137  and  _140
REMARK   62  A    between atoms: _140  and  _141
REMARK   63  A    between atoms: _141  and  _142
REMARK   64  A    between atoms: _142  and  _143
REMARK   65  A    between atoms: _143  and  _144
REMARK   66  A    between atoms: _148  and  _150
REMARK   67  A    between atoms: _150  and  _151
REMARK   68  A    between atoms: _150  and  _153
REMARK   69  A    between atoms: _153  and  _154
REMARK   70  A    between atoms: _159  and  _160
REMARK   71  A    between atoms: _162  and  _164
REMARK   72  A    between atoms: _164  and  _165
REMARK   73  A    between atoms: _164  and  _167
REMARK   74  A    between atoms: _167  and  _168
REMARK   75  A    between atoms: _171  and  _173
REMARK   76  A    between atoms: _173  and  _174
REMARK   77  A    between atoms: _173  and  _176
REMARK   78  A    between atoms: _176  and  _177
REMARK   79  A    between atoms: _180  and  _182
REMARK   80  A    between atoms: _182  and  _183
REMARK   81  A    between atoms: _182  and  _185
REMARK   82  A    between atoms: _185  and  _186
REMARK   83  A    between atoms: _189  and  _191
REMARK   84  A    between atoms: _191  and  _192
REMARK   85  A    between atoms: _195  and  _197
REMARK   86  A    between atoms: _197  and  _198
REMARK   87  A    between atoms: _200  and  _202
REMARK   88  A    between atoms: _202  and  _203
REMARK   89  A    between atoms: _206  and  _208
REMARK   90  A    between atoms: _208  and  _209
REMARK   91  A    between atoms: _208  and  _211
REMARK   92  A    between atoms: _211  and  _212
REMARK   93  A    between atoms: _212  and  _213
REMARK   94  A    between atoms: _213  and  _214
REMARK   95  A    between atoms: _223  and  _225
REMARK   96  A    between atoms: _225  and  _226
REMARK   97  A    between atoms: _225  and  _228
REMARK   98  A    between atoms: _228  and  _229
REMARK   99  A    between atoms: _229  and  _230
REMARK  100  A    between atoms: _235  and  _237
REMARK  101  A    between atoms: _237  and  _238
REMARK  102  A    between atoms: _237  and  _240
REMARK  103  A    between atoms: _240  and  _241
REMARK  104  A    between atoms: _246  and  _248
REMARK  105  A    between atoms: _248  and  _249
REMARK  106  A    between atoms: _248  and  _251
REMARK  107  A    between atoms: _251  and  _252
REMARK  108  A    between atoms: _255  and  _257
REMARK  109  A    between atoms: _257  and  _258
REMARK  110  A    between atoms: _257  and  _260
REMARK  111  A    between atoms: _260  and  _261
REMARK  112  A    between atoms: _261  and  _262
REMARK  113  A    between atoms: _267  and  _269
REMARK  114  A    between atoms: _269  and  _270
REMARK  115  A    between atoms: _269  and  _272
REMARK  116  A    between atoms: _272  and  _273
REMARK  117  A    between atoms: _273  and  _274
REMARK  118  A    between atoms: _274  and  _275
REMARK  119  A    between atoms: _284  and  _286
REMARK  120  A    between atoms: _286  and  _287
REMARK  121  A    between atoms: _286  and  _289
REMARK  122  A    between atoms: _289  and  _290
REMARK  123  A    between atoms: _295  and  _297
REMARK  124  A    between atoms: _297  and  _298
REMARK  125  A    between atoms: _297  and  _300
REMARK  126  A    between atoms: _303  and  _305
REMARK  127  A    between atoms: _305  and  _306
REMARK  128  A    between atoms: _305  and  _308
REMARK  129  A    between atoms: _308  and  _309
REMARK  130  A    between atoms: _314  and  _316
REMARK  131  A    between atoms: _316  and  _317
REMARK  132  A    between atoms: _316  and  _319
REMARK  133  A    between atoms: _319  and  _320
REMARK  134  A    between atoms: _323  and  _325
REMARK  135  A    between atoms: _325  and  _326
REMARK  136  A    between atoms: _325  and  _328
REMARK  137  A    between atoms: _328  and  _329
REMARK  138  A    between atoms: _335  and  _337
REMARK  139  A    between atoms: _337  and  _338
REMARK  140  A    between atoms: _337  and  _340
REMARK  141  A    between atoms: _340  and  _341
REMARK  142  A    between atoms: _341  and  _342
REMARK  143  A    between atoms: _342  and  _343
REMARK  144  A    between atoms: _343  and  _344
REMARK  145  A    between atoms: _348  and  _350
REMARK  146  A    between atoms: _350  and  _351
REMARK  147  A    between atoms: _350  and  _353
REMARK  148  A    between atoms: _353  and  _354
REMARK  149  A    between atoms: _360  and  _362
REMARK  150  A    between atoms: _362  and  _363
REMARK  151  A    between atoms: _362  and  _365
REMARK  152  A    between atoms: _365  and  _366
REMARK  153  A    between atoms: _369  and  _371
REMARK  154  A    between atoms: _371  and  _372
REMARK  155  A    between atoms: _371  and  _374
REMARK  156  A    between atoms: _374  and  _375
REMARK  157  A    between atoms: _378  and  _380
REMARK  158  A    between atoms: _380  and  _381
REMARK  159  A    between atoms: _380  and  _383
REMARK  160  A    between atoms: _383  and  _384
REMARK  161  A    between atoms: _389  and  _391
REMARK  162  A    between atoms: _391  and  _392
REMARK  163  A    between atoms: _391  and  _394
REMARK  164  A    between atoms: _394  and  _395
REMARK  165  A    between atoms: _398  and  _400
REMARK  166  A    between atoms: _400  and  _401
REMARK  167  A    between atoms: _400  and  _403
REMARK  168  A    between atoms: _406  and  _408
REMARK  169  A    between atoms: _408  and  _409
REMARK  170  A    between atoms: _408  and  _411
REMARK  171  A    between atoms: _414  and  _416
REMARK  172  A    between atoms: _416  and  _417
REMARK  173  A    between atoms: _416  and  _419
REMARK  174  A    between atoms: _419  and  _420
REMARK  175  A    between atoms: _422  and  _424
REMARK  176  A    between atoms: _424  and  _425
REMARK  177  A    between atoms: _424  and  _427
REMARK  178  A    between atoms: _427  and  _428
REMARK  179  A    between atoms: _433  and  _435
REMARK  180  A    between atoms: _435  and  _436
REMARK  181  A    between atoms: _435  and  _438
REMARK  182  A    between atoms: _441  and  _443
REMARK  183  A    between atoms: _443  and  _444
REMARK  184  A    between atoms: _443  and  _446
REMARK  185  A    between atoms: _446  and  _447
REMARK  186  A    between atoms: _450  and  _452
REMARK  187  A    between atoms: _452  and  _453
REMARK  188  A    between atoms: _452  and  _455
REMARK  189  A    between atoms: _455  and  _456
REMARK  190  A    between atoms: _458  and  _460
REMARK  191  A    between atoms: _460  and  _461
REMARK  192  A    between atoms: _463  and  _465
REMARK  193  A    between atoms: _465  and  _466
REMARK  194  A    between atoms: _465  and  _468
REMARK  195  A    between atoms: _468  and  _469
REMARK  196  A    between atoms: _472  and  _474
REMARK  197  A    between atoms: _474  and  _475
REMARK  198  A    between atoms: _474  and  _477
REMARK  199  A    between atoms: _477  and  _478
REMARK  200  A    between atoms: _481  and  _483
REMARK  201  A    between atoms: _483  and  _484
REMARK  202  A    between atoms: _483  and  _486
REMARK  203  A    between atoms: _486  and  _487
REMARK  204  A    between atoms: _487  and  _488
REMARK  205  A    between atoms: _488  and  _489
REMARK  206  A    between atoms: _498  and  _500
REMARK  207  A    between atoms: _500  and  _501
REMARK  208  A    between atoms: _500  and  _503
REMARK  209  A    between atoms: _503  and  _504
REMARK  210  A    between atoms: _509  and  _511
REMARK  211  A    between atoms: _511  and  _512
REMARK  212  A    between atoms: _514  and  _516
REMARK  213  A    between atoms: _516  and  _517
REMARK  214  A    between atoms: _516  and  _519
REMARK  215  A    between atoms: _522  and  _524
REMARK  216  A    between atoms: _524  and  _525
REMARK  217  A    between atoms: _524  and  _527
REMARK  218  A    between atoms: _530  and  _532
REMARK  219  A    between atoms: _532  and  _533
REMARK  220  A    between atoms: _532  and  _535
REMARK  221  A    between atoms: _535  and  _536
REMARK  222  A    between atoms: _539  and  _541
REMARK  223  A    between atoms: _541  and  _542
REMARK  224  A    between atoms: _541  and  _544
REMARK  225  A    between atoms: _544  and  _545
REMARK  226  A    between atoms: _547  and  _549
REMARK  227  A    between atoms: _549  and  _550
REMARK  228  A    between atoms: _553  and  _555
REMARK  229  A    between atoms: _555  and  _556
REMARK  230  A    between atoms: _555  and  _558
REMARK  231  A    between atoms: _558  and  _559
REMARK  232  A    between atoms: _564  and  _565
REMARK  233  A    between atoms: _567  and  _569
REMARK  234  A    between atoms: _569  and  _570
REMARK  235  A    between atoms: _569  and  _572
REMARK  236  A    between atoms: _572  and  _573
REMARK  237  A    between atoms: _573  and  _574
REMARK  238  A    between atoms: _577  and  _579
REMARK  239  A    between atoms: _579  and  _580
REMARK  240  A    between atoms: _579  and  _582
REMARK  241  A    between atoms: _585  and  _587
REMARK  242  A    between atoms: _587  and  _588
REMARK  243  A    between atoms: _587  and  _590
REMARK  244  A    between atoms: _590  and  _591
REMARK  245  A    between atoms: _594  and  _596
REMARK  246  A    between atoms: _596  and  _597
REMARK  247  A    between atoms: _599  and  _601
REMARK  248  A    between atoms: _601  and  _602
REMARK  249  A    between atoms: _601  and  _604
REMARK  250  A    between atoms: _604  and  _605
REMARK  251  A    between atoms: _610  and  _611
REMARK  252  A    between atoms: _613  and  _615
REMARK  253  A    between atoms: _615  and  _616
REMARK  254  A    between atoms: _615  and  _618
REMARK  255  A    between atoms: _618  and  _619
REMARK  256  A    between atoms: _622  and  _624
REMARK  257  A    between atoms: _624  and  _625
REMARK  258  A    between atoms: _624  and  _627
REMARK  259  A    between atoms: _627  and  _628
REMARK  260  A    between atoms: _631  and  _633
REMARK  261  A    between atoms: _633  and  _634
REMARK  262  A    between atoms: _637  and  _639
REMARK  263  A    between atoms: _639  and  _640
REMARK  264  A    between atoms: _639  and  _642
REMARK  265  A    between atoms: _642  and  _643
REMARK  266  A    between atoms: _646  and  _648
REMARK  267  A    between atoms: _648  and  _649
REMARK  268  A    between atoms: _651  and  _653
REMARK  269  A    between atoms: _653  and  _654
REMARK  270  A    between atoms: _653  and  _656
REMARK  271  A    between atoms: _656  and  _657
REMARK  272  A    between atoms: _659  and  _661
REMARK  273  A    between atoms: _661  and  _662
REMARK  274  A    between atoms: _661  and  _664
REMARK  275  A    between atoms: _667  and  _669
REMARK  276  A    between atoms: _669  and  _670
REMARK  277  A    between atoms: _669  and  _672
REMARK  278  A    between atoms: _672  and  _673
REMARK  279  A    between atoms: _676  and  _678
REMARK  280  A    between atoms: _678  and  _679
REMARK  281  A    between atoms: _678  and  _681
REMARK  282  A    between atoms: _681  and  _682
REMARK                            x       y       z     vdW  Elec       q    Type
REMARK                         _______ _______ _______ _____ _____    ______ ____
ROOT
ATOM      1  C   GLY A   5      10.203  12.787  34.307  0.00  0.00    +0.243 C 
ATOM      2  N   ALA A   6       8.916  12.644  34.015  0.00  0.00    -0.297 N 
ATOM      3  H   ALA A   6       8.354  11.939  34.533  0.00  0.00    +0.150 HD
ATOM      4  O   GLY A   5      10.908  13.656  33.806  0.00  0.00    -0.273 OA
ENDROOT
BRANCH   2   5
ATOM      5  CA  ALA A   6       8.271  13.450  32.986  0.00  0.00    +0.149 C 
ATOM      6  CB  ALA A   6       7.069  12.699  32.412  0.00  0.00    +0.031 C 
BRANCH   5   7
ATOM      7  C   ALA A   6       7.831  14.804  33.541  0.00  0.00    +0.241 C 
ATOM      8  O   ALA A   6       7.574  14.945  34.736  0.00  0.00    -0.273 OA
ATOM      9  N   ARG A   7       7.750  15.796  32.661  0.00  0.00    -0.297 N 
ATOM     10  H   ARG A   7       7.994  15.609  31.668  0.00  0.00    +0.150 HD
BRANCH   9  11
ATOM     11  CA  ARG A   7       7.329  17.140  33.044  0.00  0.00    +0.149 C 
BRANCH  11  12
ATOM     12  C   ARG A   7       5.813  17.284  32.929  0.00  0.00    +0.241 C 
ATOM     13  N   GLN A   8       5.182  17.740  34.007  0.00  0.00    -0.298 N 
ATOM     14  H   GLN A   8       5.738  18.020  34.840  0.00  0.00    +0.150 HD
ATOM     15  O   ARG A   7       5.225  16.978  31.887  0.00  0.00    -0.273 OA
BRANCH  13  16
ATOM     16  CA  GLN A   8       3.725  17.858  34.050  0.00  0.00    +0.137 C 
BRANCH  16  17
ATOM     17  C   GLN A   8       3.217  18.991  33.162  0.00  0.00    +0.227 C 
ATOM     18  O   GLN A   8       3.585  19.088  31.989  0.00  0.00    -0.286 OA
ENDBRANCH  16  17
BRANCH  16  19
ATOM     19  CB  GLN A   8       3.257  18.096  35.486  0.00  0.00    +0.037 C 
BRANCH  19  20
ATOM     20  CG  GLN A   8       3.283  16.860  36.365  0.00  0.00    +0.087 C 
BRANCH  20  21
ATOM     21  CD  GLN A   8       1.885  16.331  36.658  0.00  0.00    +0.219 C 
ATOM     22  OE1 GLN A   8       1.455  16.287  37.817  0.00  0.00    -0.275 OA
ATOM     23  NE2 GLN A   8       1.164  15.930  35.605  0.00  0.00    -0.329 N 
ATOM     24 HE21 GLN A   8       0.201  15.563  35.744  0.00  0.00    +0.145 HD
ATOM     25 HE22 GLN A   8       1.567  15.985  34.648  0.00  0.00    +0.145 HD
ENDBRANCH  20  21
ENDBRANCH  19  20
ENDBRANCH  16  19
ENDBRANCH  13  16
ENDBRANCH  11  12
BRANCH  11  26
ATOM     26  CB  ARG A   7       8.040  18.172  32.158  0.00  0.00    +0.033 C 
BRANCH  26  27
ATOM     27  CG  ARG A   7       7.186  19.355  31.728  0.00  0.00    +0.045 C 
BRANCH  27  28
ATOM     28  CD  ARG A   7       6.527  19.104  30.364  0.00  0.00    +0.174 C 
BRANCH  28  29
ATOM     29  NE  ARG A   7       7.470  19.231  29.253  0.00  0.00    -0.265 N 
ATOM     30  HE  ARG A   7       8.445  19.519  29.472  0.00  0.00    +0.259 HD
ATOM     31  CZ  ARG A   7       7.158  19.001  27.980  0.00  0.00    +0.342 C 
ATOM     32  NH2 ARG A   7       5.926  18.624  27.654  0.00  0.00    -0.292 N 
ATOM     33 HH21 ARG A   7       5.205  18.508  28.394  0.00  0.00    +0.255 HD
ATOM     34 HH22 ARG A   7       5.683  18.445  26.659  0.00  0.00    +0.255 HD
ATOM     35  NH1 ARG A   7       8.079  19.144  27.033  0.00  0.00    -0.292 N 
ATOM     36 HH11 ARG A   7       9.044  19.436  27.286  0.00  0.00    +0.255 HD
ATOM     37 HH12 ARG A   7       7.834  18.964  26.038  0.00  0.00    +0.255 HD
ENDBRANCH  28  29
ENDBRANCH  27  28
ENDBRANCH  26  27
ENDBRANCH  11  26
ENDBRANCH   9  11
ENDBRANCH   5   7
ENDBRANCH   2   5
BRANCH   1  38
ATOM     38  CA  GLY A   5      10.785  11.811  35.309  0.00  0.00    +0.176 C 
BRANCH  38  41
ATOM     39  C   ALA A   4      12.875  10.654  35.623  0.00  0.00    +0.241 C 
ATOM     40  O   ALA A   4      12.292   9.676  36.084  0.00  0.00    -0.273 OA
ATOM     41  N   GLY A   5      12.232  11.741  35.214  0.00  0.00    -0.295 N 
ATOM     42  H   GLY A   5      12.766  12.544  34.825  0.00  0.00    +0.150 HD
BRANCH  39  43
ATOM     43  CA  ALA A   4      14.394  10.668  35.484  0.00  0.00    +0.149 C 
ATOM     44  CB  ALA A   4      14.809   9.934  34.208  0.00  0.00    +0.031 C 
BRANCH  43  47
ATOM     45  C   THR A   3      15.124  10.709  37.808  0.00  0.00    +0.243 C 
ATOM     46  O   THR A   3      14.605  11.799  38.005  0.00  0.00    -0.273 OA
ATOM     47  N   ALA A   4      15.057  10.075  36.641  0.00  0.00    -0.297 N 
ATOM     48  H   ALA A   4      15.488   9.133  36.551  0.00  0.00    +0.150 HD
BRANCH  45  49
ATOM     49  CA  THR A   3      15.885  10.007  38.920  0.00  0.00    +0.176 C 
BRANCH  49  52
ATOM     50  C   ILE A   2      16.384   7.639  38.794  0.00  0.00    +0.241 C 
ATOM     51  O   ILE A   2      15.556   7.373  39.665  0.00  0.00    -0.273 OA
ATOM     52  N   THR A   3      16.649   8.879  38.403  0.00  0.00    -0.295 N 
ATOM     53  H   THR A   3      17.413   9.048  37.718  0.00  0.00    +0.150 HD
BRANCH  50  54
ATOM     54  CA  ILE A   2      17.172   6.536  38.114  0.00  0.00    +0.148 C 
BRANCH  54  56
ATOM     55  C   ILE A   1      19.369   6.145  39.065  0.00  0.00    +0.238 C 
ATOM     56  N   ILE A   2      18.057   5.928  39.096  0.00  0.00    -0.297 N 
ATOM     57  H   ILE A   2      17.657   5.314  39.834  0.00  0.00    +0.150 HD
ATOM     58  O   ILE A   1      19.894   6.955  38.301  0.00  0.00    -0.274 OA
BRANCH  55  59
ATOM     59  CA  ILE A   1      20.226   5.308  40.007  0.00  0.00    +0.145 C 
BRANCH  59  60
ATOM     60  N   ILE A   1      21.260   4.664  39.211  0.00  0.00    -0.238 NA
ATOM     61  H   ILE A   1      22.009   5.247  38.787  0.00  0.00    +0.142 HD
ENDBRANCH  59  60
BRANCH  59  62
ATOM     62  CB  ILE A   1      20.877   6.197  41.102  0.00  0.00    +0.025 C 
ATOM     63  CG2 ILE A   1      19.813   7.005  41.838  0.00  0.00    +0.002 C 
BRANCH  62  64
ATOM     64  CG1 ILE A   1      21.677   5.314  42.070  0.00  0.00    +0.002 C 
ATOM     65  CD1 ILE A   1      22.571   6.085  43.052  0.00  0.00    +0.000 C 
ENDBRANCH  62  64
ENDBRANCH  59  62
ENDBRANCH  55  59
ENDBRANCH  54  56
BRANCH  54  66
ATOM     66  CB  ILE A   2      16.154   5.516  37.525  0.00  0.00    +0.027 C 
ATOM     67  CG2 ILE A   2      15.432   6.145  36.332  0.00  0.00    +0.002 C 
BRANCH  66  68
ATOM     68  CG1 ILE A   2      16.866   4.233  37.054  0.00  0.00    +0.002 C 
ATOM     69  CD1 ILE A   2      17.807   4.424  35.872  0.00  0.00    +0.000 C 
ENDBRANCH  66  68
ENDBRANCH  54  66
ENDBRANCH  50  54
ENDBRANCH  49  52
BRANCH  49  70
ATOM     70  CB  THR A   3      16.797  11.032  39.624  0.00  0.00    +0.137 C 
ATOM     71  CG2 THR A   3      17.621  10.347  40.709  0.00  0.00    +0.034 C 
BRANCH  70  72
ATOM     72  OG1 THR A   3      17.679  11.635  38.668  0.00  0.00    -0.382 OA
ATOM     73  HG1 THR A   3      18.237  10.934  38.248  0.00  0.00    +0.210 HD
ENDBRANCH  70  72
ENDBRANCH  49  70
ENDBRANCH  45  49
ENDBRANCH  43  47
ENDBRANCH  39  43
ENDBRANCH  38  41
ENDBRANCH   1  38
TORSDOF 29
REMARK  Name = ../refined-set-2016/4i9h/4i9h_pocket.pdb
REMARK  282 active torsions:
REMARK  status: ('A' for Active; 'I' for Inactive)
REMARK    1  A    between atoms: _1  and  _3
REMARK    2  A    between atoms: _3  and  _4
REMARK    3  A    between atoms: _3  and  _6
REMARK    4  A    between atoms: _9  and  _11
REMARK    5  A    between atoms: _11  and  _12
REMARK    6  A    between atoms: _11  and  _14
REMARK    7  A    between atoms: _17  and  _19
REMARK    8  A    between atoms: _19  and  _20
REMARK    9  A    between atoms: _22  and  _24
REMARK   10  A    between atoms: _24  and  _25
REMARK   11  A    between atoms: _24  and  _27
REMARK   12  A    between atoms: _30  and  _32
REMARK   13  A    between atoms: _32  and  _33
REMARK   14  A    between atoms: _35  and  _37
REMARK   15  A    between atoms: _37  and  _38
REMARK   16  A    between atoms: _41  and  _43
REMARK   17  A    between atoms: _43  and  _44
REMARK   18  A    between atoms: _43  and  _46
REMARK   19  A    between atoms: _49  and  _51
REMARK   20  A    between atoms: _51  and  _52
REMARK   21  A    between atoms: _54  and  _56
REMARK   22  A    between atoms: _56  and  _57
REMARK   23  A    between atoms: _56  and  _59
REMARK   24  A    between atoms: _59  and  _60
REMARK   25  A    between atoms: _60  and  _61
REMARK   26  A    between atoms: _63  and  _65
REMARK   27  A    between atoms: _65  and  _66
REMARK   28  A    between atoms: _65  and  _68
REMARK   29  A    between atoms: _70  and  _72
REMARK   30  A    between atoms: _72  and  _73
REMARK   31  A    between atoms: _72  and  _75
REMARK   32  A    between atoms: _75  and  _76
REMARK   33  A    between atoms: _79  and  _81
REMARK   34  A    between atoms: _81  and  _82
REMARK   35  A    between atoms: _81  and  _84
REMARK   36  A    between atoms: _87  and  _89
REMARK   37  A    between atoms: _89  and  _90
REMARK   38  A    between atoms: _89  and  _92
REMARK   39  A    between atoms: _92  and  _93
REMARK   40  A    between atoms: _96  and  _98
REMARK   41  A    between atoms: _98  and  _99
REMARK   42  A    between atoms: _98  and  _101
REMARK   43  A    between atoms: _104  and  _106
REMARK   44  A    between atoms: _106  and  _107
REMARK   45  A    between atoms: _106  and  _109
REMARK   46  A    between atoms: _109  and  _110
REMARK   47  A    between atoms: _110  and  _111
REMARK   48  A    between atoms: _113  and  _115
REMARK   49  A    between atoms: _115  and  _116
REMARK   50  A    between atoms: _115  and  _118
REMARK   51  A    between atoms: _118  and  _119
REMARK   52  A    between atoms: _119  and  _120
REMARK   53  A    between atoms: _120  and  _121
REMARK   54  A    between atoms: _121  and  _122
REMARK   55  A    between atoms: _126  and  _128
REMARK   56  A    between atoms: _128  and  _129
REMARK   57  A    between atoms: _128  and  _131
REMARK   58  A    between atoms: _131  and  _132
REMARK   59  A    between atoms: _135  and  _137
REMARK   60  A    between atoms: _137  and  _138
REMARK   61  A    between atoms: _137  and  _140
REMARK   62  A    between atoms: _140  and  _141
REMARK   63  A    between atoms: _141  and  _142
REMARK   64  A    between atoms: _142  and  _143
REMARK   65  A    between atoms: _143  and  _144
REMARK   66  A    between atoms: _148  and  _150
REMARK   67  A    between atoms: _150  and  _151
REMARK   68  A    between atoms: _150  and  _153
REMARK   69  A    between atoms: _153  and  _154
REMARK   70  A    between atoms: _159  and  _160
REMARK   71  A    between atoms: _162  and  _164
REMARK   72  A    between atoms: _164  and  _165
REMARK   73  A    between atoms: _164  and  _167
REMARK   74  A    between atoms: _167  and  _168
REMARK   75  A    between atoms: _171  and  _173
REMARK   76  A    between atoms: _173  and  _174
REMARK   77  A    between atoms: _173  and  _176
REMARK   78  A    between atoms: _176  and  _177
REMARK   79  A    between atoms: _180  and  _182
REMARK   80  A    between atoms: _182  and  _183
REMARK   81  A    between atoms: _182  and  _185
REMARK   82  A    between atoms: _185  and  _186
REMARK   83  A    between atoms: _189  and  _191
REMARK   84  A    between atoms: _191  and  _192
REMARK   85  A    between atoms: _195  and  _197
REMARK   86  A    between atoms: _197  and  _198
REMARK   87  A    between atoms: _200  and  _202
REMARK   88  A    between atoms: _202  and  _203
REMARK   89  A    between atoms: _206  and  _208
REMARK   90  A    between atoms: _208  and  _209
REMARK   91  A    between atoms: _208  and  _211
REMARK   92  A    between atoms: _211  and  _212
REMARK   93  A    between atoms: _212  and  _213
REMARK   94  A    between atoms: _213  and  _214
REMARK   95  A    between atoms: _223  and  _225
REMARK   96  A    between atoms: _225  and  _226
REMARK   97  A    between atoms: _225  and  _228
REMARK   98  A    between atoms: _228  and  _229
REMARK   99  A    between atoms: _229  and  _230
REMARK  100  A    between atoms: _235  and  _237
REMARK  101  A    between atoms: _237  and  _238
REMARK  102  A    between atoms: _237  and  _240
REMARK  103  A    between atoms: _240  and  _241
REMARK  104  A    between atoms: _246  and  _248
REMARK  105  A    between atoms: _248  and  _249
REMARK  106  A    between atoms: _248  and  _251
REMARK  107  A    between atoms: _251  and  _252
REMARK  108  A    between atoms: _255  and  _257
REMARK  109  A    between atoms: _257  and  _258
REMARK  110  A    between atoms: _257  and  _260
REMARK  111  A    between atoms: _260  and  _261
REMARK  112  A    between atoms: _261  and  _262
REMARK  113  A    between atoms: _267  and  _269
REMARK  114  A    between atoms: _269  and  _270
REMARK  115  A    between atoms: _269  and  _272
REMARK  116  A    between atoms: _272  and  _273
REMARK  117  A    between atoms: _273  and  _274
REMARK  118  A    between atoms: _274  and  _275
REMARK  119  A    between atoms: _284  and  _286
REMARK  120  A    between atoms: _286  and  _287
REMARK  121  A    between atoms: _286  and  _289
REMARK  122  A    between atoms: _289  and  _290
REMARK  123  A    between atoms: _295  and  _297
REMARK  124  A    between atoms: _297  and  _298
REMARK  125  A    between atoms: _297  and  _300
REMARK  126  A    between atoms: _303  and  _305
REMARK  127  A    between atoms: _305  and  _306
REMARK  128  A    between atoms: _305  and  _308
REMARK  129  A    between atoms: _308  and  _309
REMARK  130  A    between atoms: _314  and  _316
REMARK  131  A    between atoms: _316  and  _317
REMARK  132  A    between atoms: _316  and  _319
REMARK  133  A    between atoms: _319  and  _320
REMARK  134  A    between atoms: _323  and  _325
REMARK  135  A    between atoms: _325  and  _326
REMARK  136  A    between atoms: _325  and  _328
REMARK  137  A    between atoms: _328  and  _329
REMARK  138  A    between atoms: _335  and  _337
REMARK  139  A    between atoms: _337  and  _338
REMARK  140  A    between atoms: _337  and  _340
REMARK  141  A    between atoms: _340  and  _341
REMARK  142  A    between atoms: _341  and  _342
REMARK  143  A    between atoms: _342  and  _343
REMARK  144  A    between atoms: _343  and  _344
REMARK  145  A    between atoms: _348  and  _350
REMARK  146  A    between atoms: _350  and  _351
REMARK  147  A    between atoms: _350  and  _353
REMARK  148  A    between atoms: _353  and  _354
REMARK  149  A    between atoms: _360  and  _362
REMARK  150  A    between atoms: _362  and  _363
REMARK  151  A    between atoms: _362  and  _365
REMARK  152  A    between atoms: _365  and  _366
REMARK  153  A    between atoms: _369  and  _371
REMARK  154  A    between atoms: _371  and  _372
REMARK  155  A    between atoms: _371  and  _374
REMARK  156  A    between atoms: _374  and  _375
REMARK  157  A    between atoms: _378  and  _380
REMARK  158  A    between atoms: _380  and  _381
REMARK  159  A    between atoms: _380  and  _383
REMARK  160  A    between atoms: _383  and  _384
REMARK  161  A    between atoms: _389  and  _391
REMARK  162  A    between atoms: _391  and  _392
REMARK  163  A    between atoms: _391  and  _394
REMARK  164  A    between atoms: _394  and  _395
REMARK  165  A    between atoms: _398  and  _400
REMARK  166  A    between atoms: _400  and  _401
REMARK  167  A    between atoms: _400  and  _403
REMARK  168  A    between atoms: _406  and  _408
REMARK  169  A    between atoms: _408  and  _409
REMARK  170  A    between atoms: _408  and  _411
REMARK  171  A    between atoms: _414  and  _416
REMARK  172  A    between atoms: _416  and  _417
REMARK  173  A    between atoms: _416  and  _419
REMARK  174  A    between atoms: _419  and  _420
REMARK  175  A    between atoms: _422  and  _424
REMARK  176  A    between atoms: _424  and  _425
REMARK  177  A    between atoms: _424  and  _427
REMARK  178  A    between atoms: _427  and  _428
REMARK  179  A    between atoms: _433  and  _435
REMARK  180  A    between atoms: _435  and  _436
REMARK  181  A    between atoms: _435  and  _438
REMARK  182  A    between atoms: _441  and  _443
REMARK  183  A    between atoms: _443  and  _444
REMARK  184  A    between atoms: _443  and  _446
REMARK  185  A    between atoms: _446  and  _447
REMARK  186  A    between atoms: _450  and  _452
REMARK  187  A    between atoms: _452  and  _453
REMARK  188  A    between atoms: _452  and  _455
REMARK  189  A    between atoms: _455  and  _456
REMARK  190  A    between atoms: _458  and  _460
REMARK  191  A    between atoms: _460  and  _461
REMARK  192  A    between atoms: _463  and  _465
REMARK  193  A    between atoms: _465  and  _466
REMARK  194  A    between atoms: _465  and  _468
REMARK  195  A    between atoms: _468  and  _469
REMARK  196  A    between atoms: _472  and  _474
REMARK  197  A    between atoms: _474  and  _475
REMARK  198  A    between atoms: _474  and  _477
REMARK  199  A    between atoms: _477  and  _478
REMARK  200  A    between atoms: _481  and  _483
REMARK  201  A    between atoms: _483  and  _484
REMARK  202  A    between atoms: _483  and  _486
REMARK  203  A    between atoms: _486  and  _487
REMARK  204  A    between atoms: _487  and  _488
REMARK  205  A    between atoms: _488  and  _489
REMARK  206  A    between atoms: _498  and  _500
REMARK  207  A    between atoms: _500  and  _501
REMARK  208  A    between atoms: _500  and  _503
REMARK  209  A    between atoms: _503  and  _504
REMARK  210  A    between atoms: _509  and  _511
REMARK  211  A    between atoms: _511  and  _512
REMARK  212  A    between atoms: _514  and  _516
REMARK  213  A    between atoms: _516  and  _517
REMARK  214  A    between atoms: _516  and  _519
REMARK  215  A    between atoms: _522  and  _524
REMARK  216  A    between atoms: _524  and  _525
REMARK  217  A    between atoms: _524  and  _527
REMARK  218  A    between atoms: _530  and  _532
REMARK  219  A    between atoms: _532  and  _533
REMARK  220  A    between atoms: _532  and  _535
REMARK  221  A    between atoms: _535  and  _536
REMARK  222  A    between atoms: _539  and  _541
REMARK  223  A    between atoms: _541  and  _542
REMARK  224  A    between atoms: _541  and  _544
REMARK  225  A    between atoms: _544  and  _545
REMARK  226  A    between atoms: _547  and  _549
REMARK  227  A    between atoms: _549  and  _550
REMARK  228  A    between atoms: _553  and  _555
REMARK  229  A    between atoms: _555  and  _556
REMARK  230  A    between atoms: _555  and  _558
REMARK  231  A    between atoms: _558  and  _559
REMARK  232  A    between atoms: _564  and  _565
REMARK  233  A    between atoms: _567  and  _569
REMARK  234  A    between atoms: _569  and  _570
REMARK  235  A    between atoms: _569  and  _572
REMARK  236  A    between atoms: _572  and  _573
REMARK  237  A    between atoms: _573  and  _574
REMARK  238  A    between atoms: _577  and  _579
REMARK  239  A    between atoms: _579  and  _580
REMARK  240  A    between atoms: _579  and  _582
REMARK  241  A    between atoms: _585  and  _587
REMARK  242  A    between atoms: _587  and  _588
REMARK  243  A    between atoms: _587  and  _590
REMARK  244  A    between atoms: _590  and  _591
REMARK  245  A    between atoms: _594  and  _596
REMARK  246  A    between atoms: _596  and  _597
REMARK  247  A    between atoms: _599  and  _601
REMARK  248  A    between atoms: _601  and  _602
REMARK  249  A    between atoms: _601  and  _604
REMARK  250  A    between atoms: _604  and  _605
REMARK  251  A    between atoms: _610  and  _611
REMARK  252  A    between atoms: _613  and  _615
REMARK  253  A    between atoms: _615  and  _616
REMARK  254  A    between atoms: _615  and  _618
REMARK  255  A    between atoms: _618  and  _619
REMARK  256  A    between atoms: _622  and  _624
REMARK  257  A    between atoms: _624  and  _625
REMARK  258  A    between atoms: _624  and  _627
REMARK  259  A    between atoms: _627  and  _628
REMARK  260  A    between atoms: _631  and  _633
REMARK  261  A    between atoms: _633  and  _634
REMARK  262  A    between atoms: _637  and  _639
REMARK  263  A    between atoms: _639  and  _640
REMARK  264  A    between atoms: _639  and  _642
REMARK  265  A    between atoms: _642  and  _643
REMARK  266  A    between atoms: _646  and  _648
REMARK  267  A    between atoms: _648  and  _649
REMARK  268  A    between atoms: _651  and  _653
REMARK  269  A    between atoms: _653  and  _654
REMARK  270  A    between atoms: _653  and  _656
REMARK  271  A    between atoms: _656  and  _657
REMARK  272  A    between atoms: _659  and  _661
REMARK  273  A    between atoms: _661  and  _662
REMARK  274  A    between atoms: _661  and  _664
REMARK  275  A    between atoms: _667  and  _669
REMARK  276  A    between atoms: _669  and  _670
REMARK  277  A    between atoms: _669  and  _672
REMARK  278  A    between atoms: _672  and  _673
REMARK  279  A    between atoms: _676  and  _678
REMARK  280  A    between atoms: _678  and  _679
REMARK  281  A    between atoms: _678  and  _681
REMARK  282  A    between atoms: _681  and  _682
REMARK                            x       y       z     vdW  Elec       q    Type
REMARK                         _______ _______ _______ _____ _____    ______ ____
ROOT
ATOM      1  C   ASN A   1      -0.037  10.180  32.352  0.00  0.00    +0.239 C 
ATOM      2  N   LEU A   2       0.394  10.547  33.553  0.00  0.00    -0.298 N 
ATOM      3  H   LEU A   2      -0.284  10.608  34.339  0.00  0.00    +0.150 HD
ATOM      4  O   ASN A   1       0.689  10.137  31.362  0.00  0.00    -0.274 OA
ENDROOT
BRANCH   1   5
ATOM      5  CA  ASN A   1      -1.513   9.820  32.258  0.00  0.00    +0.154 C 
BRANCH   5   6
ATOM      6  N   ASN A   1      -2.247  10.345  33.412  0.00  0.00    -0.238 NA
ATOM      7  H   ASN A   1      -2.556   9.685  34.153  0.00  0.00    +0.142 HD
ENDBRANCH   5   6
BRANCH   5   8
ATOM      8  CB  ASN A   1      -2.091  10.376  30.956  0.00  0.00    +0.111 C 
BRANCH   8   9
ATOM      9  CG  ASN A   1      -3.526   9.962  30.741  0.00  0.00    +0.221 C 
ATOM     10  OD1 ASN A   1      -4.453  10.567  31.291  0.00  0.00    -0.275 OA
ATOM     11  ND2 ASN A   1      -3.723   8.921  29.940  0.00  0.00    -0.329 N 
ATOM     12 HD21 ASN A   1      -4.689   8.584  29.754  0.00  0.00    +0.145 HD
ATOM     13 HD22 ASN A   1      -2.911   8.443  29.499  0.00  0.00    +0.145 HD
ENDBRANCH   8   9
ENDBRANCH   5   8
ENDBRANCH   1   5
BRANCH   2  14
ATOM     14  CA  LEU A   2       1.794  10.866  33.795  0.00  0.00    +0.137 C 
BRANCH  14  15
ATOM     15  C   LEU A   2       2.601   9.583  33.832  0.00  0.00    +0.227 C 
ATOM     16  O   LEU A   2       3.555   9.413  33.065  0.00  0.00    -0.286 OA
ENDBRANCH  14  15
BRANCH  14  17
ATOM     17  CB  LEU A   2       1.953  11.589  35.127  0.00  0.00    +0.028 C 
BRANCH  17  18
ATOM     18  CG  LEU A   2       2.848  12.828  35.099  0.00  0.00    +0.002 C 
ATOM     19  CD2 LEU A   2       2.886  13.477  36.469  0.00  0.00    +0.000 C 
ATOM     20  CD1 LEU A   2       2.317  13.807  34.060  0.00  0.00    +0.000 C 
ENDBRANCH  17  18
ENDBRANCH  14  17
ENDBRANCH   2  14
TORSDOF 8
REMARK  Name = ../refined-set-2016/4i9h/4i9h_pocket.pdb
REMARK  282 active torsions:
REMARK  status: ('A' for Active; 'I' for Inactive)
REMARK    1  A    between atoms: _1  and  _3
REMARK    2  A    between atoms: _3  and  _4
REMARK    3  A    between atoms: _3  and  _6
REMARK    4  A    between atoms: _9  and  _11
REMARK    5  A    between atoms: _11  and  _12
REMARK    6  A    between atoms: _11  and  _14
REMARK    7  A    between atoms: _17  and  _19
REMARK    8  A    between atoms: _19  and  _20
REMARK    9  A    between atoms: _22  and  _24
REMARK   10  A    between atoms: _24  and  _25
REMARK   11  A    between atoms: _24  and  _27
REMARK   12  A    between atoms: _30  and  _32
REMARK   13  A    between atoms: _32  and  _33
REMARK   14  A    between atoms: _35  and  _37
REMARK   15  A    between atoms: _37  and  _38
REMARK   16  A    between atoms: _41  and  _43
REMARK   17  A    between atoms: _43  and  _44
REMARK   18  A    between atoms: _43  and  _46
REMARK   19  A    between atoms: _49  and  _51
REMARK   20  A    between atoms: _51  and  _52
REMARK   21  A    between atoms: _54  and  _56
REMARK   22  A    between atoms: _56  and  _57
REMARK   23  A    between atoms: _56  and  _59
REMARK   24  A    between atoms: _59  and  _60
REMARK   25  A    between atoms: _60  and  _61
REMARK   26  A    between atoms: _63  and  _65
REMARK   27  A    between atoms: _65  and  _66
REMARK   28  A    between atoms: _65  and  _68
REMARK   29  A    between atoms: _70  and  _72
REMARK   30  A    between atoms: _72  and  _73
REMARK   31  A    between atoms: _72  and  _75
REMARK   32  A    between atoms: _75  and  _76
REMARK   33  A    between atoms: _79  and  _81
REMARK   34  A    between atoms: _81  and  _82
REMARK   35  A    between atoms: _81  and  _84
REMARK   36  A    between atoms: _87  and  _89
REMARK   37  A    between atoms: _89  and  _90
REMARK   38  A    between atoms: _89  and  _92
REMARK   39  A    between atoms: _92  and  _93
REMARK   40  A    between atoms: _96  and  _98
REMARK   41  A    between atoms: _98  and  _99
REMARK   42  A    between atoms: _98  and  _101
REMARK   43  A    between atoms: _104  and  _106
REMARK   44  A    between atoms: _106  and  _107
REMARK   45  A    between atoms: _106  and  _109
REMARK   46  A    between atoms: _109  and  _110
REMARK   47  A    between atoms: _110  and  _111
REMARK   48  A    between atoms: _113  and  _115
REMARK   49  A    between atoms: _115  and  _116
REMARK   50  A    between atoms: _115  and  _118
REMARK   51  A    between atoms: _118  and  _119
REMARK   52  A    between atoms: _119  and  _120
REMARK   53  A    between atoms: _120  and  _121
REMARK   54  A    between atoms: _121  and  _122
REMARK   55  A    between atoms: _126  and  _128
REMARK   56  A    between atoms: _128  and  _129
REMARK   57  A    between atoms: _128  and  _131
REMARK   58  A    between atoms: _131  and  _132
REMARK   59  A    between atoms: _135  and  _137
REMARK   60  A    between atoms: _137  and  _138
REMARK   61  A    between atoms: _137  and  _140
REMARK   62  A    between atoms: _140  and  _141
REMARK   63  A    between atoms: _141  and  _142
REMARK   64  A    between atoms: _142  and  _143
REMARK   65  A    between atoms: _143  and  _144
REMARK   66  A    between atoms: _148  and  _150
REMARK   67  A    between atoms: _150  and  _151
REMARK   68  A    between atoms: _150  and  _153
REMARK   69  A    between atoms: _153  and  _154
REMARK   70  A    between atoms: _159  and  _160
REMARK   71  A    between atoms: _162  and  _164
REMARK   72  A    between atoms: _164  and  _165
REMARK   73  A    between atoms: _164  and  _167
REMARK   74  A    between atoms: _167  and  _168
REMARK   75  A    between atoms: _171  and  _173
REMARK   76  A    between atoms: _173  and  _174
REMARK   77  A    between atoms: _173  and  _176
REMARK   78  A    between atoms: _176  and  _177
REMARK   79  A    between atoms: _180  and  _182
REMARK   80  A    between atoms: _182  and  _183
REMARK   81  A    between atoms: _182  and  _185
REMARK   82  A    between atoms: _185  and  _186
REMARK   83  A    between atoms: _189  and  _191
REMARK   84  A    between atoms: _191  and  _192
REMARK   85  A    between atoms: _195  and  _197
REMARK   86  A    between atoms: _197  and  _198
REMARK   87  A    between atoms: _200  and  _202
REMARK   88  A    between atoms: _202  and  _203
REMARK   89  A    between atoms: _206  and  _208
REMARK   90  A    between atoms: _208  and  _209
REMARK   91  A    between atoms: _208  and  _211
REMARK   92  A    between atoms: _211  and  _212
REMARK   93  A    between atoms: _212  and  _213
REMARK   94  A    between atoms: _213  and  _214
REMARK   95  A    between atoms: _223  and  _225
REMARK   96  A    between atoms: _225  and  _226
REMARK   97  A    between atoms: _225  and  _228
REMARK   98  A    between atoms: _228  and  _229
REMARK   99  A    between atoms: _229  and  _230
REMARK  100  A    between atoms: _235  and  _237
REMARK  101  A    between atoms: _237  and  _238
REMARK  102  A    between atoms: _237  and  _240
REMARK  103  A    between atoms: _240  and  _241
REMARK  104  A    between atoms: _246  and  _248
REMARK  105  A    between atoms: _248  and  _249
REMARK  106  A    between atoms: _248  and  _251
REMARK  107  A    between atoms: _251  and  _252
REMARK  108  A    between atoms: _255  and  _257
REMARK  109  A    between atoms: _257  and  _258
REMARK  110  A    between atoms: _257  and  _260
REMARK  111  A    between atoms: _260  and  _261
REMARK  112  A    between atoms: _261  and  _262
REMARK  113  A    between atoms: _267  and  _269
REMARK  114  A    between atoms: _269  and  _270
REMARK  115  A    between atoms: _269  and  _272
REMARK  116  A    between atoms: _272  and  _273
REMARK  117  A    between atoms: _273  and  _274
REMARK  118  A    between atoms: _274  and  _275
REMARK  119  A    between atoms: _284  and  _286
REMARK  120  A    between atoms: _286  and  _287
REMARK  121  A    between atoms: _286  and  _289
REMARK  122  A    between atoms: _289  and  _290
REMARK  123  A    between atoms: _295  and  _297
REMARK  124  A    between atoms: _297  and  _298
REMARK  125  A    between atoms: _297  and  _300
REMARK  126  A    between atoms: _303  and  _305
REMARK  127  A    between atoms: _305  and  _306
REMARK  128  A    between atoms: _305  and  _308
REMARK  129  A    between atoms: _308  and  _309
REMARK  130  A    between atoms: _314  and  _316
REMARK  131  A    between atoms: _316  and  _317
REMARK  132  A    between atoms: _316  and  _319
REMARK  133  A    between atoms: _319  and  _320
REMARK  134  A    between atoms: _323  and  _325
REMARK  135  A    between atoms: _325  and  _326
REMARK  136  A    between atoms: _325  and  _328
REMARK  137  A    between atoms: _328  and  _329
REMARK  138  A    between atoms: _335  and  _337
REMARK  139  A    between atoms: _337  and  _338
REMARK  140  A    between atoms: _337  and  _340
REMARK  141  A    between atoms: _340  and  _341
REMARK  142  A    between atoms: _341  and  _342
REMARK  143  A    between atoms: _342  and  _343
REMARK  144  A    between atoms: _343  and  _344
REMARK  145  A    between atoms: _348  and  _350
REMARK  146  A    between atoms: _350  and  _351
REMARK  147  A    between atoms: _350  and  _353
REMARK  148  A    between atoms: _353  and  _354
REMARK  149  A    between atoms: _360  and  _362
REMARK  150  A    between atoms: _362  and  _363
REMARK  151  A    between atoms: _362  and  _365
REMARK  152  A    between atoms: _365  and  _366
REMARK  153  A    between atoms: _369  and  _371
REMARK  154  A    between atoms: _371  and  _372
REMARK  155  A    between atoms: _371  and  _374
REMARK  156  A    between atoms: _374  and  _375
REMARK  157  A    between atoms: _378  and  _380
REMARK  158  A    between atoms: _380  and  _381
REMARK  159  A    between atoms: _380  and  _383
REMARK  160  A    between atoms: _383  and  _384
REMARK  161  A    between atoms: _389  and  _391
REMARK  162  A    between atoms: _391  and  _392
REMARK  163  A    between atoms: _391  and  _394
REMARK  164  A    between atoms: _394  and  _395
REMARK  165  A    between atoms: _398  and  _400
REMARK  166  A    between atoms: _400  and  _401
REMARK  167  A    between atoms: _400  and  _403
REMARK  168  A    between atoms: _406  and  _408
REMARK  169  A    between atoms: _408  and  _409
REMARK  170  A    between atoms: _408  and  _411
REMARK  171  A    between atoms: _414  and  _416
REMARK  172  A    between atoms: _416  and  _417
REMARK  173  A    between atoms: _416  and  _419
REMARK  174  A    between atoms: _419  and  _420
REMARK  175  A    between atoms: _422  and  _424
REMARK  176  A    between atoms: _424  and  _425
REMARK  177  A    between atoms: _424  and  _427
REMARK  178  A    between atoms: _427  and  _428
REMARK  179  A    between atoms: _433  and  _435
REMARK  180  A    between atoms: _435  and  _436
REMARK  181  A    between atoms: _435  and  _438
REMARK  182  A    between atoms: _441  and  _443
REMARK  183  A    between atoms: _443  and  _444
REMARK  184  A    between atoms: _443  and  _446
REMARK  185  A    between atoms: _446  and  _447
REMARK  186  A    between atoms: _450  and  _452
REMARK  187  A    between atoms: _452  and  _453
REMARK  188  A    between atoms: _452  and  _455
REMARK  189  A    between atoms: _455  and  _456
REMARK  190  A    between atoms: _458  and  _460
REMARK  191  A    between atoms: _460  and  _461
REMARK  192  A    between atoms: _463  and  _465
REMARK  193  A    between atoms: _465  and  _466
REMARK  194  A    between atoms: _465  and  _468
REMARK  195  A    between atoms: _468  and  _469
REMARK  196  A    between atoms: _472  and  _474
REMARK  197  A    between atoms: _474  and  _475
REMARK  198  A    between atoms: _474  and  _477
REMARK  199  A    between atoms: _477  and  _478
REMARK  200  A    between atoms: _481  and  _483
REMARK  201  A    between atoms: _483  and  _484
REMARK  202  A    between atoms: _483  and  _486
REMARK  203  A    between atoms: _486  and  _487
REMARK  204  A    between atoms: _487  and  _488
REMARK  205  A    between atoms: _488  and  _489
REMARK  206  A    between atoms: _498  and  _500
REMARK  207  A    between atoms: _500  and  _501
REMARK  208  A    between atoms: _500  and  _503
REMARK  209  A    between atoms: _503  and  _504
REMARK  210  A    between atoms: _509  and  _511
REMARK  211  A    between atoms: _511  and  _512
REMARK  212  A    between atoms: _514  and  _516
REMARK  213  A    between atoms: _516  and  _517
REMARK  214  A    between atoms: _516  and  _519
REMARK  215  A    between atoms: _522  and  _524
REMARK  216  A    between atoms: _524  and  _525
REMARK  217  A    between atoms: _524  and  _527
REMARK  218  A    between atoms: _530  and  _532
REMARK  219  A    between atoms: _532  and  _533
REMARK  220  A    between atoms: _532  and  _535
REMARK  221  A    between atoms: _535  and  _536
REMARK  222  A    between atoms: _539  and  _541
REMARK  223  A    between atoms: _541  and  _542
REMARK  224  A    between atoms: _541  and  _544
REMARK  225  A    between atoms: _544  and  _545
REMARK  226  A    between atoms: _547  and  _549
REMARK  227  A    between atoms: _549  and  _550
REMARK  228  A    between atoms: _553  and  _555
REMARK  229  A    between atoms: _555  and  _556
REMARK  230  A    between atoms: _555  and  _558
REMARK  231  A    between atoms: _558  and  _559
REMARK  232  A    between atoms: _564  and  _565
REMARK  233  A    between atoms: _567  and  _569
REMARK  234  A    between atoms: _569  and  _570
REMARK  235  A    between atoms: _569  and  _572
REMARK  236  A    between atoms: _572  and  _573
REMARK  237  A    between atoms: _573  and  _574
REMARK  238  A    between atoms: _577  and  _579
REMARK  239  A    between atoms: _579  and  _580
REMARK  240  A    between atoms: _579  and  _582
REMARK  241  A    between atoms: _585  and  _587
REMARK  242  A    between atoms: _587  and  _588
REMARK  243  A    between atoms: _587  and  _590
REMARK  244  A    between atoms: _590  and  _591
REMARK  245  A    between atoms: _594  and  _596
REMARK  246  A    between atoms: _596  and  _597
REMARK  247  A    between atoms: _599  and  _601
REMARK  248  A    between atoms: _601  and  _602
REMARK  249  A    between atoms: _601  and  _604
REMARK  250  A    between atoms: _604  and  _605
REMARK  251  A    between atoms: _610  and  _611
REMARK  252  A    between atoms: _613  and  _615
REMARK  253  A    between atoms: _615  and  _616
REMARK  254  A    between atoms: _615  and  _618
REMARK  255  A    between atoms: _618  and  _619
REMARK  256  A    between atoms: _622  and  _624
REMARK  257  A    between atoms: _624  and  _625
REMARK  258  A    between atoms: _624  and  _627
REMARK  259  A    between atoms: _627  and  _628
REMARK  260  A    between atoms: _631  and  _633
REMARK  261  A    between atoms: _633  and  _634
REMARK  262  A    between atoms: _637  and  _639
REMARK  263  A    between atoms: _639  and  _640
REMARK  264  A    between atoms: _639  and  _642
REMARK  265  A    between atoms: _642  and  _643
REMARK  266  A    between atoms: _646  and  _648
REMARK  267  A    between atoms: _648  and  _649
REMARK  268  A    between atoms: _651  and  _653
REMARK  269  A    between atoms: _653  and  _654
REMARK  270  A    between atoms: _653  and  _656
REMARK  271  A    between atoms: _656  and  _657
REMARK  272  A    between atoms: _659  and  _661
REMARK  273  A    between atoms: _661  and  _662
REMARK  274  A    between atoms: _661  and  _664
REMARK  275  A    between atoms: _667  and  _669
REMARK  276  A    between atoms: _669  and  _670
REMARK  277  A    between atoms: _669  and  _672
REMARK  278  A    between atoms: _672  and  _673
REMARK  279  A    between atoms: _676  and  _678
REMARK  280  A    between atoms: _678  and  _679
REMARK  281  A    between atoms: _678  and  _681
REMARK  282  A    between atoms: _681  and  _682
REMARK                            x       y       z     vdW  Elec       q    Type
REMARK                         _______ _______ _______ _____ _____    ______ ____
ROOT
ATOM      1  CA  ILE A   6      10.652   7.545  29.480  0.00  0.00    +0.149 C 
ENDROOT
BRANCH   1   2
ATOM      2  C   ILE A   6      11.462   6.293  29.852  0.00  0.00    +0.241 C 
ATOM      3  N   PHE A   7      10.902   5.442  30.702  0.00  0.00    -0.297 N 
ATOM      4  H   PHE A   7       9.941   5.625  31.054  0.00  0.00    +0.150 HD
ATOM      5  O   ILE A   6      12.572   6.097  29.364  0.00  0.00    -0.273 OA
BRANCH   3   6
ATOM      6  CA  PHE A   7      11.615   4.258  31.146  0.00  0.00    +0.153 C 
BRANCH   6   7
ATOM      7  C   PHE A   7      11.801   3.227  30.038  0.00  0.00    +0.241 C 
ATOM      8  O   PHE A   7      12.743   2.431  30.077  0.00  0.00    -0.273 OA
ATOM      9  N   LYS A   8      10.902   3.248  29.054  0.00  0.00    -0.297 N 
ATOM     10  H   LYS A   8      10.118   3.929  29.106  0.00  0.00    +0.150 HD
BRANCH   9  11
ATOM     11  CA  LYS A   8      10.979   2.350  27.908  0.00  0.00    +0.149 C 
BRANCH  11  12
ATOM     12  C   LYS A   8      12.215   2.659  27.088  0.00  0.00    +0.241 C 
ATOM     13  N   PHE A   9      12.657   3.908  27.154  0.00  0.00    -0.297 N 
ATOM     14  H   PHE A   9      12.123   4.616  27.697  0.00  0.00    +0.150 HD
ATOM     15  O   LYS A   8      12.762   1.785  26.412  0.00  0.00    -0.273 OA
BRANCH  13  16
ATOM     16  CA  PHE A   9      13.883   4.294  26.472  0.00  0.00    +0.153 C 
BRANCH  16  17
ATOM     17  C   PHE A   9      15.122   4.114  27.354  0.00  0.00    +0.241 C 
ATOM     18  N   ILE A  10      15.028   4.546  28.607  0.00  0.00    -0.297 N 
ATOM     19  H   ILE A  10      14.108   4.878  28.961  0.00  0.00    +0.150 HD
ATOM     20  O   PHE A   9      16.136   3.587  26.909  0.00  0.00    -0.273 OA
BRANCH  18  21
ATOM     21  CA  ILE A  10      16.181   4.566  29.499  0.00  0.00    +0.149 C 
BRANCH  21  22
ATOM     22  C   ILE A  10      16.643   3.180  29.927  0.00  0.00    +0.241 C 
ATOM     23  N   ILE A  11      15.723   2.366  30.428  0.00  0.00    -0.298 N 
ATOM     24  H   ILE A  11      14.716   2.621  30.370  0.00  0.00    +0.150 HD
ATOM     25  O   ILE A  10      17.820   2.855  29.830  0.00  0.00    -0.273 OA
BRANCH  23  26
ATOM     26  CA  ILE A  11      16.121   1.116  31.059  0.00  0.00    +0.137 C 
BRANCH  26  27
ATOM     27  C   ILE A  11      16.863   0.168  30.102  0.00  0.00    +0.227 C 
ATOM     28  O   ILE A  11      17.938  -0.324  30.424  0.00  0.00    -0.286 OA
ENDBRANCH  26  27
BRANCH  26  29
ATOM     29  CB  ILE A  11      14.902   0.407  31.683  0.00  0.00    +0.026 C 
ATOM     30  CG2 ILE A  11      15.314  -0.912  32.301  0.00  0.00    +0.002 C 
BRANCH  29  31
ATOM     31  CG1 ILE A  11      14.290   1.308  32.761  0.00  0.00    +0.002 C 
ATOM     32  CD1 ILE A  11      15.286   1.782  33.813  0.00  0.00    +0.000 C 
ENDBRANCH  29  31
ENDBRANCH  26  29
ENDBRANCH  23  26
ENDBRANCH  21  22
BRANCH  21  33
ATOM     33  CB  ILE A  10      15.888   5.370  30.788  0.00  0.00    +0.027 C 
ATOM     34  CG2 ILE A  10      17.049   5.225  31.754  0.00  0.00    +0.002 C 
BRANCH  33  35
ATOM     35  CG1 ILE A  10      15.643   6.839  30.454  0.00  0.00    +0.002 C 
ATOM     36  CD1 ILE A  10      15.448   7.706  31.670  0.00  0.00    +0.000 C 
ENDBRANCH  33  35
ENDBRANCH  21  33
ENDBRANCH  18  21
ENDBRANCH  16  17
BRANCH  16  37
ATOM     37  CB  PHE A   9      13.807   5.753  26.016  0.00  0.00    +0.055 C 
BRANCH  37  38
ATOM     38  CG  PHE A   9      15.035   6.216  25.305  0.00  0.00    -0.020 A 
ATOM     39  CD2 PHE A   9      15.975   6.997  25.959  0.00  0.00    -0.004 A 
ATOM     40  CE2 PHE A   9      17.147   7.369  25.319  0.00  0.00    -0.000 A 
ATOM     41  CZ  PHE A   9      17.385   6.964  24.019  0.00  0.00    -0.000 A 
ATOM     42  CE1 PHE A   9      16.453   6.192  23.353  0.00  0.00    -0.000 A 
ATOM     43  CD1 PHE A   9      15.280   5.820  23.997  0.00  0.00    -0.004 A 
ENDBRANCH  37  38
ENDBRANCH  16  37
ENDBRANCH  13  16
ENDBRANCH  11  12
BRANCH  11  44
ATOM     44  CB  LYS A   8       9.723   2.472  27.019  0.00  0.00    +0.029 C 
BRANCH  44  45
ATOM     45  CG  LYS A   8       8.421   2.010  27.648  0.00  0.00    +0.000 C 
BRANCH  45  46
ATOM     46  CD  LYS A   8       7.334   1.774  26.610  0.00  0.00    -0.024 C 
BRANCH  46  47
ATOM     47  CE  LYS A   8       6.158   2.732  26.749  0.00  0.00    -0.086 C 
BRANCH  47  48
ATOM     48  NZ  LYS A   8       5.097   2.440  25.738  0.00  0.00    +0.380 N 
ATOM     49  HZ1 LYS A   8       4.751   1.469  25.872  0.00  0.00    -0.089 HD
ATOM     50  HZ2 LYS A   8       4.311   3.110  25.859  0.00  0.00    -0.089 HD
ATOM     51  HZ3 LYS A   8       5.494   2.539  24.782  0.00  0.00    -0.089 HD
ENDBRANCH  47  48
ENDBRANCH  46  47
ENDBRANCH  45  46
ENDBRANCH  44  45
ENDBRANCH  11  44
ENDBRANCH   9  11
ENDBRANCH   6   7
BRANCH   6  52
ATOM     52  CB  PHE A   7      10.895   3.613  32.330  0.00  0.00    +0.055 C 
BRANCH  52  53
ATOM     53  CG  PHE A   7      11.231   4.234  33.658  0.00  0.00    -0.020 A 
ATOM     54  CD2 PHE A   7      11.450   3.440  34.768  0.00  0.00    -0.004 A 
ATOM     55  CE2 PHE A   7      11.754   4.008  35.990  0.00  0.00    -0.000 A 
ATOM     56  CZ  PHE A   7      11.842   5.386  36.116  0.00  0.00    -0.000 A 
ATOM     57  CE1 PHE A   7      11.627   6.189  35.018  0.00  0.00    -0.000 A 
ATOM     58  CD1 PHE A   7      11.322   5.611  33.793  0.00  0.00    -0.004 A 
ENDBRANCH  52  53
ENDBRANCH   6  52
ENDBRANCH   3   6
ENDBRANCH   1   2
BRANCH   1  60
ATOM     59  C   ASN A   5       8.996   6.292  28.230  0.00  0.00    +0.241 C 
ATOM     60  N   ILE A   6       9.270   7.214  29.147  0.00  0.00    -0.297 N 
ATOM     61  H   ILE A   6       8.492   7.705  29.632  0.00  0.00    +0.150 HD
ATOM     62  O   ASN A   5       9.875   5.740  27.564  0.00  0.00    -0.273 OA
BRANCH  59  63
ATOM     63  CA  ASN A   5       7.523   5.913  28.048  0.00  0.00    +0.158 C 
BRANCH  63  66
ATOM     64  C   VAL A   4       7.406   4.752  30.167  0.00  0.00    +0.241 C 
ATOM     65  O   VAL A   4       8.330   4.000  29.848  0.00  0.00    -0.273 OA
ATOM     66  N   ASN A   5       6.922   5.683  29.353  0.00  0.00    -0.297 N 
ATOM     67  H   ASN A   5       6.105   6.253  29.651  0.00  0.00    +0.150 HD
BRANCH  64  68
ATOM     68  CA  VAL A   4       6.763   4.653  31.541  0.00  0.00    +0.149 C 
BRANCH  68  71
ATOM     69  C   ASN A   3       7.565   6.816  32.322  0.00  0.00    +0.241 C 
ATOM     70  O   ASN A   3       8.744   6.509  32.125  0.00  0.00    -0.273 OA
ATOM     71  N   VAL A   4       6.549   5.982  32.107  0.00  0.00    -0.297 N 
ATOM     72  H   VAL A   4       5.583   6.284  32.347  0.00  0.00    +0.150 HD
BRANCH  69  73
ATOM     73  CA  ASN A   3       7.195   8.210  32.819  0.00  0.00    +0.158 C 
BRANCH  73  75
ATOM     74  C   ARG A   2       6.070   8.884  30.791  0.00  0.00    +0.241 C 
ATOM     75  N   ASN A   3       6.029   8.717  32.106  0.00  0.00    -0.297 N 
ATOM     76  H   ASN A   3       5.161   8.949  32.631  0.00  0.00    +0.150 HD
ATOM     77  O   ARG A   2       7.112   8.784  30.149  0.00  0.00    -0.273 OA
BRANCH  74  78
ATOM     78  CA  ARG A   2       4.747   9.202  30.094  0.00  0.00    +0.149 C 
BRANCH  78  80
ATOM     79  C   GLN A   1       3.532   7.175  30.554  0.00  0.00    +0.238 C 
ATOM     80  N   ARG A   2       3.628   8.490  30.692  0.00  0.00    -0.297 N 
ATOM     81  H   ARG A   2       2.905   9.012  31.227  0.00  0.00    +0.150 HD
ATOM     82  O   GLN A   1       4.358   6.516  29.928  0.00  0.00    -0.274 OA
BRANCH  79  83
ATOM     83  CA  GLN A   1       2.343   6.503  31.237  0.00  0.00    +0.145 C 
BRANCH  83  84
ATOM     84  N   GLN A   1       2.188   7.038  32.579  0.00  0.00    -0.238 NA
ATOM     85  H   GLN A   1       1.346   7.596  32.825  0.00  0.00    +0.142 HD
ENDBRANCH  83  84
BRANCH  83  86
ATOM     86  CB  GLN A   1       1.076   6.727  30.416  0.00  0.00    +0.036 C 
BRANCH  86  87
ATOM     87  CG  GLN A   1       1.098   5.990  29.094  0.00  0.00    +0.087 C 
BRANCH  87  88
ATOM     88  CD  GLN A   1       1.668   4.585  29.221  0.00  0.00    +0.219 C 
ATOM     89  OE1 GLN A   1       1.126   3.741  29.936  0.00  0.00    -0.275 OA
ATOM     90  NE2 GLN A   1       2.767   4.330  28.522  0.00  0.00    -0.329 N 
ATOM     91 HE21 GLN A   1       3.204   3.387  28.565  0.00  0.00    +0.145 HD
ATOM     92 HE22 GLN A   1       3.191   5.073  27.931  0.00  0.00    +0.145 HD
ENDBRANCH  87  88
ENDBRANCH  86  87
ENDBRANCH  83  86
ENDBRANCH  79  83
ENDBRANCH  78  80
BRANCH  78  93
ATOM     93  CB  ARG A   2       4.479  10.708  30.113  0.00  0.00    +0.033 C 
BRANCH  93  94
ATOM     94  CG  ARG A   2       3.391  11.130  29.135  0.00  0.00    +0.045 C 
BRANCH  94  95
ATOM     95  CD  ARG A   2       3.028  12.590  29.314  0.00  0.00    +0.174 C 
BRANCH  95  96
ATOM     96  NE  ARG A   2       4.193  13.451  29.124  0.00  0.00    -0.265 N 
ATOM     97  CZ  ARG A   2       4.481  14.485  29.905  0.00  0.00    +0.342 C 
ATOM     98  NH2 ARG A   2       3.701  14.781  30.941  0.00  0.00    -0.292 N 
ATOM     99 HH21 ARG A   2       3.931  15.592  31.550  0.00  0.00    +0.255 HD
ATOM    100 HH22 ARG A   2       2.861  14.201  31.142  0.00  0.00    +0.255 HD
ATOM    101  NH1 ARG A   2       5.556  15.213  29.659  0.00  0.00    -0.292 N 
ATOM    102 HH11 ARG A   2       5.785  16.024  30.268  0.00  0.00    +0.255 HD
ATOM    103 HH12 ARG A   2       6.173  14.975  28.856  0.00  0.00    +0.255 HD
ATOM    104  HE  ARG A   2       4.833  13.242  28.332  0.00  0.00    +0.259 HD
ENDBRANCH  95  96
ENDBRANCH  94  95
ENDBRANCH  93  94
ENDBRANCH  78  93
ENDBRANCH  74  78
ENDBRANCH  73  75
BRANCH  73 105
ATOM    105  CB  ASN A   3       6.919   8.185  34.321  0.00  0.00    +0.114 C 
BRANCH 105 106
ATOM    106  CG  ASN A   3       6.803   9.577  34.900  0.00  0.00    +0.222 C 
ATOM    107  OD1 ASN A   3       5.759   9.957  35.438  0.00  0.00    -0.275 OA
ATOM    108  ND2 ASN A   3       7.876  10.356  34.785  0.00  0.00    -0.329 N 
ATOM    109 HD21 ASN A   3       7.856  11.327  35.156  0.00  0.00    +0.145 HD
ATOM    110 HD22 ASN A   3       8.735   9.993  34.324  0.00  0.00    +0.145 HD
ENDBRANCH 105 106
ENDBRANCH  73 105
ENDBRANCH  69  73
ENDBRANCH  68  71
BRANCH  68 111
ATOM    111  CB  VAL A   4       5.444   3.863  31.397  0.00  0.00    +0.027 C 
ATOM    112  CG2 VAL A   4       4.914   3.475  32.781  0.00  0.00    +0.002 C 
ATOM    113  CG1 VAL A   4       5.682   2.615  30.549  0.00  0.00    +0.002 C 
ENDBRANCH  68 111
ENDBRANCH  64  68
ENDBRANCH  63  66
BRANCH  63 114
ATOM    114  CB  ASN A   5       6.759   7.022  27.310  0.00  0.00    +0.114 C 
BRANCH 114 115
ATOM    115  CG  ASN A   5       5.339   6.611  26.941  0.00  0.00    +0.222 C 
ATOM    116  OD1 ASN A   5       5.027   5.428  26.850  0.00  0.00    -0.275 OA
ATOM    117  ND2 ASN A   5       4.476   7.594  26.727  0.00  0.00    -0.329 N 
ATOM    118 HD21 ASN A   5       4.783   8.584  26.815  0.00  0.00    +0.145 HD
ATOM    119 HD22 ASN A   5       3.492   7.376  26.471  0.00  0.00    +0.145 HD
ENDBRANCH 114 115
ENDBRANCH  63 114
ENDBRANCH  59  63
ENDBRANCH   1  60
BRANCH   1 120
ATOM    120  CB  ILE A   6      10.728   8.545  30.647  0.00  0.00    +0.027 C 
ATOM    121  CG2 ILE A   6      12.181   8.730  31.066  0.00  0.00    +0.002 C 
BRANCH 120 122
ATOM    122  CG1 ILE A   6      10.124   9.890  30.234  0.00  0.00    +0.002 C 
ATOM    123  CD1 ILE A   6      10.036  10.902  31.373  0.00  0.00    +0.000 C 
ENDBRANCH 120 122
ENDBRANCH   1 120
TORSDOF 49
REMARK  Name = ../refined-set-2016/4i9h/4i9h_pocket.pdb
REMARK  282 active torsions:
REMARK  status: ('A' for Active; 'I' for Inactive)
REMARK    1  A    between atoms: _1  and  _3
REMARK    2  A    between atoms: _3  and  _4
REMARK    3  A    between atoms: _3  and  _6
REMARK    4  A    between atoms: _9  and  _11
REMARK    5  A    between atoms: _11  and  _12
REMARK    6  A    between atoms: _11  and  _14
REMARK    7  A    between atoms: _17  and  _19
REMARK    8  A    between atoms: _19  and  _20
REMARK    9  A    between atoms: _22  and  _24
REMARK   10  A    between atoms: _24  and  _25
REMARK   11  A    between atoms: _24  and  _27
REMARK   12  A    between atoms: _30  and  _32
REMARK   13  A    between atoms: _32  and  _33
REMARK   14  A    between atoms: _35  and  _37
REMARK   15  A    between atoms: _37  and  _38
REMARK   16  A    between atoms: _41  and  _43
REMARK   17  A    between atoms: _43  and  _44
REMARK   18  A    between atoms: _43  and  _46
REMARK   19  A    between atoms: _49  and  _51
REMARK   20  A    between atoms: _51  and  _52
REMARK   21  A    between atoms: _54  and  _56
REMARK   22  A    between atoms: _56  and  _57
REMARK   23  A    between atoms: _56  and  _59
REMARK   24  A    between atoms: _59  and  _60
REMARK   25  A    between atoms: _60  and  _61
REMARK   26  A    between atoms: _63  and  _65
REMARK   27  A    between atoms: _65  and  _66
REMARK   28  A    between atoms: _65  and  _68
REMARK   29  A    between atoms: _70  and  _72
REMARK   30  A    between atoms: _72  and  _73
REMARK   31  A    between atoms: _72  and  _75
REMARK   32  A    between atoms: _75  and  _76
REMARK   33  A    between atoms: _79  and  _81
REMARK   34  A    between atoms: _81  and  _82
REMARK   35  A    between atoms: _81  and  _84
REMARK   36  A    between atoms: _87  and  _89
REMARK   37  A    between atoms: _89  and  _90
REMARK   38  A    between atoms: _89  and  _92
REMARK   39  A    between atoms: _92  and  _93
REMARK   40  A    between atoms: _96  and  _98
REMARK   41  A    between atoms: _98  and  _99
REMARK   42  A    between atoms: _98  and  _101
REMARK   43  A    between atoms: _104  and  _106
REMARK   44  A    between atoms: _106  and  _107
REMARK   45  A    between atoms: _106  and  _109
REMARK   46  A    between atoms: _109  and  _110
REMARK   47  A    between atoms: _110  and  _111
REMARK   48  A    between atoms: _113  and  _115
REMARK   49  A    between atoms: _115  and  _116
REMARK   50  A    between atoms: _115  and  _118
REMARK   51  A    between atoms: _118  and  _119
REMARK   52  A    between atoms: _119  and  _120
REMARK   53  A    between atoms: _120  and  _121
REMARK   54  A    between atoms: _121  and  _122
REMARK   55  A    between atoms: _126  and  _128
REMARK   56  A    between atoms: _128  and  _129
REMARK   57  A    between atoms: _128  and  _131
REMARK   58  A    between atoms: _131  and  _132
REMARK   59  A    between atoms: _135  and  _137
REMARK   60  A    between atoms: _137  and  _138
REMARK   61  A    between atoms: _137  and  _140
REMARK   62  A    between atoms: _140  and  _141
REMARK   63  A    between atoms: _141  and  _142
REMARK   64  A    between atoms: _142  and  _143
REMARK   65  A    between atoms: _143  and  _144
REMARK   66  A    between atoms: _148  and  _150
REMARK   67  A    between atoms: _150  and  _151
REMARK   68  A    between atoms: _150  and  _153
REMARK   69  A    between atoms: _153  and  _154
REMARK   70  A    between atoms: _159  and  _160
REMARK   71  A    between atoms: _162  and  _164
REMARK   72  A    between atoms: _164  and  _165
REMARK   73  A    between atoms: _164  and  _167
REMARK   74  A    between atoms: _167  and  _168
REMARK   75  A    between atoms: _171  and  _173
REMARK   76  A    between atoms: _173  and  _174
REMARK   77  A    between atoms: _173  and  _176
REMARK   78  A    between atoms: _176  and  _177
REMARK   79  A    between atoms: _180  and  _182
REMARK   80  A    between atoms: _182  and  _183
REMARK   81  A    between atoms: _182  and  _185
REMARK   82  A    between atoms: _185  and  _186
REMARK   83  A    between atoms: _189  and  _191
REMARK   84  A    between atoms: _191  and  _192
REMARK   85  A    between atoms: _195  and  _197
REMARK   86  A    between atoms: _197  and  _198
REMARK   87  A    between atoms: _200  and  _202
REMARK   88  A    between atoms: _202  and  _203
REMARK   89  A    between atoms: _206  and  _208
REMARK   90  A    between atoms: _208  and  _209
REMARK   91  A    between atoms: _208  and  _211
REMARK   92  A    between atoms: _211  and  _212
REMARK   93  A    between atoms: _212  and  _213
REMARK   94  A    between atoms: _213  and  _214
REMARK   95  A    between atoms: _223  and  _225
REMARK   96  A    between atoms: _225  and  _226
REMARK   97  A    between atoms: _225  and  _228
REMARK   98  A    between atoms: _228  and  _229
REMARK   99  A    between atoms: _229  and  _230
REMARK  100  A    between atoms: _235  and  _237
REMARK  101  A    between atoms: _237  and  _238
REMARK  102  A    between atoms: _237  and  _240
REMARK  103  A    between atoms: _240  and  _241
REMARK  104  A    between atoms: _246  and  _248
REMARK  105  A    between atoms: _248  and  _249
REMARK  106  A    between atoms: _248  and  _251
REMARK  107  A    between atoms: _251  and  _252
REMARK  108  A    between atoms: _255  and  _257
REMARK  109  A    between atoms: _257  and  _258
REMARK  110  A    between atoms: _257  and  _260
REMARK  111  A    between atoms: _260  and  _261
REMARK  112  A    between atoms: _261  and  _262
REMARK  113  A    between atoms: _267  and  _269
REMARK  114  A    between atoms: _269  and  _270
REMARK  115  A    between atoms: _269  and  _272
REMARK  116  A    between atoms: _272  and  _273
REMARK  117  A    between atoms: _273  and  _274
REMARK  118  A    between atoms: _274  and  _275
REMARK  119  A    between atoms: _284  and  _286
REMARK  120  A    between atoms: _286  and  _287
REMARK  121  A    between atoms: _286  and  _289
REMARK  122  A    between atoms: _289  and  _290
REMARK  123  A    between atoms: _295  and  _297
REMARK  124  A    between atoms: _297  and  _298
REMARK  125  A    between atoms: _297  and  _300
REMARK  126  A    between atoms: _303  and  _305
REMARK  127  A    between atoms: _305  and  _306
REMARK  128  A    between atoms: _305  and  _308
REMARK  129  A    between atoms: _308  and  _309
REMARK  130  A    between atoms: _314  and  _316
REMARK  131  A    between atoms: _316  and  _317
REMARK  132  A    between atoms: _316  and  _319
REMARK  133  A    between atoms: _319  and  _320
REMARK  134  A    between atoms: _323  and  _325
REMARK  135  A    between atoms: _325  and  _326
REMARK  136  A    between atoms: _325  and  _328
REMARK  137  A    between atoms: _328  and  _329
REMARK  138  A    between atoms: _335  and  _337
REMARK  139  A    between atoms: _337  and  _338
REMARK  140  A    between atoms: _337  and  _340
REMARK  141  A    between atoms: _340  and  _341
REMARK  142  A    between atoms: _341  and  _342
REMARK  143  A    between atoms: _342  and  _343
REMARK  144  A    between atoms: _343  and  _344
REMARK  145  A    between atoms: _348  and  _350
REMARK  146  A    between atoms: _350  and  _351
REMARK  147  A    between atoms: _350  and  _353
REMARK  148  A    between atoms: _353  and  _354
REMARK  149  A    between atoms: _360  and  _362
REMARK  150  A    between atoms: _362  and  _363
REMARK  151  A    between atoms: _362  and  _365
REMARK  152  A    between atoms: _365  and  _366
REMARK  153  A    between atoms: _369  and  _371
REMARK  154  A    between atoms: _371  and  _372
REMARK  155  A    between atoms: _371  and  _374
REMARK  156  A    between atoms: _374  and  _375
REMARK  157  A    between atoms: _378  and  _380
REMARK  158  A    between atoms: _380  and  _381
REMARK  159  A    between atoms: _380  and  _383
REMARK  160  A    between atoms: _383  and  _384
REMARK  161  A    between atoms: _389  and  _391
REMARK  162  A    between atoms: _391  and  _392
REMARK  163  A    between atoms: _391  and  _394
REMARK  164  A    between atoms: _394  and  _395
REMARK  165  A    between atoms: _398  and  _400
REMARK  166  A    between atoms: _400  and  _401
REMARK  167  A    between atoms: _400  and  _403
REMARK  168  A    between atoms: _406  and  _408
REMARK  169  A    between atoms: _408  and  _409
REMARK  170  A    between atoms: _408  and  _411
REMARK  171  A    between atoms: _414  and  _416
REMARK  172  A    between atoms: _416  and  _417
REMARK  173  A    between atoms: _416  and  _419
REMARK  174  A    between atoms: _419  and  _420
REMARK  175  A    between atoms: _422  and  _424
REMARK  176  A    between atoms: _424  and  _425
REMARK  177  A    between atoms: _424  and  _427
REMARK  178  A    between atoms: _427  and  _428
REMARK  179  A    between atoms: _433  and  _435
REMARK  180  A    between atoms: _435  and  _436
REMARK  181  A    between atoms: _435  and  _438
REMARK  182  A    between atoms: _441  and  _443
REMARK  183  A    between atoms: _443  and  _444
REMARK  184  A    between atoms: _443  and  _446
REMARK  185  A    between atoms: _446  and  _447
REMARK  186  A    between atoms: _450  and  _452
REMARK  187  A    between atoms: _452  and  _453
REMARK  188  A    between atoms: _452  and  _455
REMARK  189  A    between atoms: _455  and  _456
REMARK  190  A    between atoms: _458  and  _460
REMARK  191  A    between atoms: _460  and  _461
REMARK  192  A    between atoms: _463  and  _465
REMARK  193  A    between atoms: _465  and  _466
REMARK  194  A    between atoms: _465  and  _468
REMARK  195  A    between atoms: _468  and  _469
REMARK  196  A    between atoms: _472  and  _474
REMARK  197  A    between atoms: _474  and  _475
REMARK  198  A    between atoms: _474  and  _477
REMARK  199  A    between atoms: _477  and  _478
REMARK  200  A    between atoms: _481  and  _483
REMARK  201  A    between atoms: _483  and  _484
REMARK  202  A    between atoms: _483  and  _486
REMARK  203  A    between atoms: _486  and  _487
REMARK  204  A    between atoms: _487  and  _488
REMARK  205  A    between atoms: _488  and  _489
REMARK  206  A    between atoms: _498  and  _500
REMARK  207  A    between atoms: _500  and  _501
REMARK  208  A    between atoms: _500  and  _503
REMARK  209  A    between atoms: _503  and  _504
REMARK  210  A    between atoms: _509  and  _511
REMARK  211  A    between atoms: _511  and  _512
REMARK  212  A    between atoms: _514  and  _516
REMARK  213  A    between atoms: _516  and  _517
REMARK  214  A    between atoms: _516  and  _519
REMARK  215  A    between atoms: _522  and  _524
REMARK  216  A    between atoms: _524  and  _525
REMARK  217  A    between atoms: _524  and  _527
REMARK  218  A    between atoms: _530  and  _532
REMARK  219  A    between atoms: _532  and  _533
REMARK  220  A    between atoms: _532  and  _535
REMARK  221  A    between atoms: _535  and  _536
REMARK  222  A    between atoms: _539  and  _541
REMARK  223  A    between atoms: _541  and  _542
REMARK  224  A    between atoms: _541  and  _544
REMARK  225  A    between atoms: _544  and  _545
REMARK  226  A    between atoms: _547  and  _549
REMARK  227  A    between atoms: _549  and  _550
REMARK  228  A    between atoms: _553  and  _555
REMARK  229  A    between atoms: _555  and  _556
REMARK  230  A    between atoms: _555  and  _558
REMARK  231  A    between atoms: _558  and  _559
REMARK  232  A    between atoms: _564  and  _565
REMARK  233  A    between atoms: _567  and  _569
REMARK  234  A    between atoms: _569  and  _570
REMARK  235  A    between atoms: _569  and  _572
REMARK  236  A    between atoms: _572  and  _573
REMARK  237  A    between atoms: _573  and  _574
REMARK  238  A    between atoms: _577  and  _579
REMARK  239  A    between atoms: _579  and  _580
REMARK  240  A    between atoms: _579  and  _582
REMARK  241  A    between atoms: _585  and  _587
REMARK  242  A    between atoms: _587  and  _588
REMARK  243  A    between atoms: _587  and  _590
REMARK  244  A    between atoms: _590  and  _591
REMARK  245  A    between atoms: _594  and  _596
REMARK  246  A    between atoms: _596  and  _597
REMARK  247  A    between atoms: _599  and  _601
REMARK  248  A    between atoms: _601  and  _602
REMARK  249  A    between atoms: _601  and  _604
REMARK  250  A    between atoms: _604  and  _605
REMARK  251  A    between atoms: _610  and  _611
REMARK  252  A    between atoms: _613  and  _615
REMARK  253  A    between atoms: _615  and  _616
REMARK  254  A    between atoms: _615  and  _618
REMARK  255  A    between atoms: _618  and  _619
REMARK  256  A    between atoms: _622  and  _624
REMARK  257  A    between atoms: _624  and  _625
REMARK  258  A    between atoms: _624  and  _627
REMARK  259  A    between atoms: _627  and  _628
REMARK  260  A    between atoms: _631  and  _633
REMARK  261  A    between atoms: _633  and  _634
REMARK  262  A    between atoms: _637  and  _639
REMARK  263  A    between atoms: _639  and  _640
REMARK  264  A    between atoms: _639  and  _642
REMARK  265  A    between atoms: _642  and  _643
REMARK  266  A    between atoms: _646  and  _648
REMARK  267  A    between atoms: _648  and  _649
REMARK  268  A    between atoms: _651  and  _653
REMARK  269  A    between atoms: _653  and  _654
REMARK  270  A    between atoms: _653  and  _656
REMARK  271  A    between atoms: _656  and  _657
REMARK  272  A    between atoms: _659  and  _661
REMARK  273  A    between atoms: _661  and  _662
REMARK  274  A    between atoms: _661  and  _664
REMARK  275  A    between atoms: _667  and  _669
REMARK  276  A    between atoms: _669  and  _670
REMARK  277  A    between atoms: _669  and  _672
REMARK  278  A    between atoms: _672  and  _673
REMARK  279  A    between atoms: _676  and  _678
REMARK  280  A    between atoms: _678  and  _679
REMARK  281  A    between atoms: _678  and  _681
REMARK  282  A    between atoms: _681  and  _682
REMARK                            x       y       z     vdW  Elec       q    Type
REMARK                         _______ _______ _______ _____ _____    ______ ____
ROOT
ATOM      1  CB  ASN A   1      19.627   3.043  27.141  0.00  0.00    +0.110 C 
ENDROOT
BRANCH   1   2
ATOM      2  CG  ASN A   1      19.434   3.410  25.680  0.00  0.00    +0.221 C 
ATOM      3  OD1 ASN A   1      18.403   3.966  25.291  0.00  0.00    -0.275 OA
ATOM      4  ND2 ASN A   1      20.432   3.097  24.861  0.00  0.00    -0.329 N 
ATOM      5 HD21 ASN A   1      21.283   2.629  25.233  0.00  0.00    +0.145 HD
ATOM      6 HD22 ASN A   1      20.363   3.320  23.848  0.00  0.00    +0.145 HD
ENDBRANCH   1   2
BRANCH   1   7
ATOM      7  CA  ASN A   1      19.822   1.538  27.345  0.00  0.00    +0.142 C 
BRANCH   7   8
ATOM      8  N   ASN A   1      18.532   0.889  27.560  0.00  0.00    -0.239 NA
ATOM      9  H   ASN A   1      17.677   1.475  27.644  0.00  0.00    +0.142 HD
ENDBRANCH   7   8
BRANCH   7  10
ATOM     10  C   ASN A   1      20.757   1.294  28.524  0.00  0.00    +0.225 C 
ATOM     11  O   ASN A   1      21.960   1.069  28.346  0.00  0.00    -0.287 OA
ENDBRANCH   7  10
ENDBRANCH   1   7
TORSDOF 4
REMARK  Name = ../refined-set-2016/4i9h/4i9h_pocket.pdb
REMARK  282 active torsions:
REMARK  status: ('A' for Active; 'I' for Inactive)
REMARK    1  A    between atoms: _1  and  _3
REMARK    2  A    between atoms: _3  and  _4
REMARK    3  A    between atoms: _3  and  _6
REMARK    4  A    between atoms: _9  and  _11
REMARK    5  A    between atoms: _11  and  _12
REMARK    6  A    between atoms: _11  and  _14
REMARK    7  A    between atoms: _17  and  _19
REMARK    8  A    between atoms: _19  and  _20
REMARK    9  A    between atoms: _22  and  _24
REMARK   10  A    between atoms: _24  and  _25
REMARK   11  A    between atoms: _24  and  _27
REMARK   12  A    between atoms: _30  and  _32
REMARK   13  A    between atoms: _32  and  _33
REMARK   14  A    between atoms: _35  and  _37
REMARK   15  A    between atoms: _37  and  _38
REMARK   16  A    between atoms: _41  and  _43
REMARK   17  A    between atoms: _43  and  _44
REMARK   18  A    between atoms: _43  and  _46
REMARK   19  A    between atoms: _49  and  _51
REMARK   20  A    between atoms: _51  and  _52
REMARK   21  A    between atoms: _54  and  _56
REMARK   22  A    between atoms: _56  and  _57
REMARK   23  A    between atoms: _56  and  _59
REMARK   24  A    between atoms: _59  and  _60
REMARK   25  A    between atoms: _60  and  _61
REMARK   26  A    between atoms: _63  and  _65
REMARK   27  A    between atoms: _65  and  _66
REMARK   28  A    between atoms: _65  and  _68
REMARK   29  A    between atoms: _70  and  _72
REMARK   30  A    between atoms: _72  and  _73
REMARK   31  A    between atoms: _72  and  _75
REMARK   32  A    between atoms: _75  and  _76
REMARK   33  A    between atoms: _79  and  _81
REMARK   34  A    between atoms: _81  and  _82
REMARK   35  A    between atoms: _81  and  _84
REMARK   36  A    between atoms: _87  and  _89
REMARK   37  A    between atoms: _89  and  _90
REMARK   38  A    between atoms: _89  and  _92
REMARK   39  A    between atoms: _92  and  _93
REMARK   40  A    between atoms: _96  and  _98
REMARK   41  A    between atoms: _98  and  _99
REMARK   42  A    between atoms: _98  and  _101
REMARK   43  A    between atoms: _104  and  _106
REMARK   44  A    between atoms: _106  and  _107
REMARK   45  A    between atoms: _106  and  _109
REMARK   46  A    between atoms: _109  and  _110
REMARK   47  A    between atoms: _110  and  _111
REMARK   48  A    between atoms: _113  and  _115
REMARK   49  A    between atoms: _115  and  _116
REMARK   50  A    between atoms: _115  and  _118
REMARK   51  A    between atoms: _118  and  _119
REMARK   52  A    between atoms: _119  and  _120
REMARK   53  A    between atoms: _120  and  _121
REMARK   54  A    between atoms: _121  and  _122
REMARK   55  A    between atoms: _126  and  _128
REMARK   56  A    between atoms: _128  and  _129
REMARK   57  A    between atoms: _128  and  _131
REMARK   58  A    between atoms: _131  and  _132
REMARK   59  A    between atoms: _135  and  _137
REMARK   60  A    between atoms: _137  and  _138
REMARK   61  A    between atoms: _137  and  _140
REMARK   62  A    between atoms: _140  and  _141
REMARK   63  A    between atoms: _141  and  _142
REMARK   64  A    between atoms: _142  and  _143
REMARK   65  A    between atoms: _143  and  _144
REMARK   66  A    between atoms: _148  and  _150
REMARK   67  A    between atoms: _150  and  _151
REMARK   68  A    between atoms: _150  and  _153
REMARK   69  A    between atoms: _153  and  _154
REMARK   70  A    between atoms: _159  and  _160
REMARK   71  A    between atoms: _162  and  _164
REMARK   72  A    between atoms: _164  and  _165
REMARK   73  A    between atoms: _164  and  _167
REMARK   74  A    between atoms: _167  and  _168
REMARK   75  A    between atoms: _171  and  _173
REMARK   76  A    between atoms: _173  and  _174
REMARK   77  A    between atoms: _173  and  _176
REMARK   78  A    between atoms: _176  and  _177
REMARK   79  A    between atoms: _180  and  _182
REMARK   80  A    between atoms: _182  and  _183
REMARK   81  A    between atoms: _182  and  _185
REMARK   82  A    between atoms: _185  and  _186
REMARK   83  A    between atoms: _189  and  _191
REMARK   84  A    between atoms: _191  and  _192
REMARK   85  A    between atoms: _195  and  _197
REMARK   86  A    between atoms: _197  and  _198
REMARK   87  A    between atoms: _200  and  _202
REMARK   88  A    between atoms: _202  and  _203
REMARK   89  A    between atoms: _206  and  _208
REMARK   90  A    between atoms: _208  and  _209
REMARK   91  A    between atoms: _208  and  _211
REMARK   92  A    between atoms: _211  and  _212
REMARK   93  A    between atoms: _212  and  _213
REMARK   94  A    between atoms: _213  and  _214
REMARK   95  A    between atoms: _223  and  _225
REMARK   96  A    between atoms: _225  and  _226
REMARK   97  A    between atoms: _225  and  _228
REMARK   98  A    between atoms: _228  and  _229
REMARK   99  A    between atoms: _229  and  _230
REMARK  100  A    between atoms: _235  and  _237
REMARK  101  A    between atoms: _237  and  _238
REMARK  102  A    between atoms: _237  and  _240
REMARK  103  A    between atoms: _240  and  _241
REMARK  104  A    between atoms: _246  and  _248
REMARK  105  A    between atoms: _248  and  _249
REMARK  106  A    between atoms: _248  and  _251
REMARK  107  A    between atoms: _251  and  _252
REMARK  108  A    between atoms: _255  and  _257
REMARK  109  A    between atoms: _257  and  _258
REMARK  110  A    between atoms: _257  and  _260
REMARK  111  A    between atoms: _260  and  _261
REMARK  112  A    between atoms: _261  and  _262
REMARK  113  A    between atoms: _267  and  _269
REMARK  114  A    between atoms: _269  and  _270
REMARK  115  A    between atoms: _269  and  _272
REMARK  116  A    between atoms: _272  and  _273
REMARK  117  A    between atoms: _273  and  _274
REMARK  118  A    between atoms: _274  and  _275
REMARK  119  A    between atoms: _284  and  _286
REMARK  120  A    between atoms: _286  and  _287
REMARK  121  A    between atoms: _286  and  _289
REMARK  122  A    between atoms: _289  and  _290
REMARK  123  A    between atoms: _295  and  _297
REMARK  124  A    between atoms: _297  and  _298
REMARK  125  A    between atoms: _297  and  _300
REMARK  126  A    between atoms: _303  and  _305
REMARK  127  A    between atoms: _305  and  _306
REMARK  128  A    between atoms: _305  and  _308
REMARK  129  A    between atoms: _308  and  _309
REMARK  130  A    between atoms: _314  and  _316
REMARK  131  A    between atoms: _316  and  _317
REMARK  132  A    between atoms: _316  and  _319
REMARK  133  A    between atoms: _319  and  _320
REMARK  134  A    between atoms: _323  and  _325
REMARK  135  A    between atoms: _325  and  _326
REMARK  136  A    between atoms: _325  and  _328
REMARK  137  A    between atoms: _328  and  _329
REMARK  138  A    between atoms: _335  and  _337
REMARK  139  A    between atoms: _337  and  _338
REMARK  140  A    between atoms: _337  and  _340
REMARK  141  A    between atoms: _340  and  _341
REMARK  142  A    between atoms: _341  and  _342
REMARK  143  A    between atoms: _342  and  _343
REMARK  144  A    between atoms: _343  and  _344
REMARK  145  A    between atoms: _348  and  _350
REMARK  146  A    between atoms: _350  and  _351
REMARK  147  A    between atoms: _350  and  _353
REMARK  148  A    between atoms: _353  and  _354
REMARK  149  A    between atoms: _360  and  _362
REMARK  150  A    between atoms: _362  and  _363
REMARK  151  A    between atoms: _362  and  _365
REMARK  152  A    between atoms: _365  and  _366
REMARK  153  A    between atoms: _369  and  _371
REMARK  154  A    between atoms: _371  and  _372
REMARK  155  A    between atoms: _371  and  _374
REMARK  156  A    between atoms: _374  and  _375
REMARK  157  A    between atoms: _378  and  _380
REMARK  158  A    between atoms: _380  and  _381
REMARK  159  A    between atoms: _380  and  _383
REMARK  160  A    between atoms: _383  and  _384
REMARK  161  A    between atoms: _389  and  _391
REMARK  162  A    between atoms: _391  and  _392
REMARK  163  A    between atoms: _391  and  _394
REMARK  164  A    between atoms: _394  and  _395
REMARK  165  A    between atoms: _398  and  _400
REMARK  166  A    between atoms: _400  and  _401
REMARK  167  A    between atoms: _400  and  _403
REMARK  168  A    between atoms: _406  and  _408
REMARK  169  A    between atoms: _408  and  _409
REMARK  170  A    between atoms: _408  and  _411
REMARK  171  A    between atoms: _414  and  _416
REMARK  172  A    between atoms: _416  and  _417
REMARK  173  A    between atoms: _416  and  _419
REMARK  174  A    between atoms: _419  and  _420
REMARK  175  A    between atoms: _422  and  _424
REMARK  176  A    between atoms: _424  and  _425
REMARK  177  A    between atoms: _424  and  _427
REMARK  178  A    between atoms: _427  and  _428
REMARK  179  A    between atoms: _433  and  _435
REMARK  180  A    between atoms: _435  and  _436
REMARK  181  A    between atoms: _435  and  _438
REMARK  182  A    between atoms: _441  and  _443
REMARK  183  A    between atoms: _443  and  _444
REMARK  184  A    between atoms: _443  and  _446
REMARK  185  A    between atoms: _446  and  _447
REMARK  186  A    between atoms: _450  and  _452
REMARK  187  A    between atoms: _452  and  _453
REMARK  188  A    between atoms: _452  and  _455
REMARK  189  A    between atoms: _455  and  _456
REMARK  190  A    between atoms: _458  and  _460
REMARK  191  A    between atoms: _460  and  _461
REMARK  192  A    between atoms: _463  and  _465
REMARK  193  A    between atoms: _465  and  _466
REMARK  194  A    between atoms: _465  and  _468
REMARK  195  A    between atoms: _468  and  _469
REMARK  196  A    between atoms: _472  and  _474
REMARK  197  A    between atoms: _474  and  _475
REMARK  198  A    between atoms: _474  and  _477
REMARK  199  A    between atoms: _477  and  _478
REMARK  200  A    between atoms: _481  and  _483
REMARK  201  A    between atoms: _483  and  _484
REMARK  202  A    between atoms: _483  and  _486
REMARK  203  A    between atoms: _486  and  _487
REMARK  204  A    between atoms: _487  and  _488
REMARK  205  A    between atoms: _488  and  _489
REMARK  206  A    between atoms: _498  and  _500
REMARK  207  A    between atoms: _500  and  _501
REMARK  208  A    between atoms: _500  and  _503
REMARK  209  A    between atoms: _503  and  _504
REMARK  210  A    between atoms: _509  and  _511
REMARK  211  A    between atoms: _511  and  _512
REMARK  212  A    between atoms: _514  and  _516
REMARK  213  A    between atoms: _516  and  _517
REMARK  214  A    between atoms: _516  and  _519
REMARK  215  A    between atoms: _522  and  _524
REMARK  216  A    between atoms: _524  and  _525
REMARK  217  A    between atoms: _524  and  _527
REMARK  218  A    between atoms: _530  and  _532
REMARK  219  A    between atoms: _532  and  _533
REMARK  220  A    between atoms: _532  and  _535
REMARK  221  A    between atoms: _535  and  _536
REMARK  222  A    between atoms: _539  and  _541
REMARK  223  A    between atoms: _541  and  _542
REMARK  224  A    between atoms: _541  and  _544
REMARK  225  A    between atoms: _544  and  _545
REMARK  226  A    between atoms: _547  and  _549
REMARK  227  A    between atoms: _549  and  _550
REMARK  228  A    between atoms: _553  and  _555
REMARK  229  A    between atoms: _555  and  _556
REMARK  230  A    between atoms: _555  and  _558
REMARK  231  A    between atoms: _558  and  _559
REMARK  232  A    between atoms: _564  and  _565
REMARK  233  A    between atoms: _567  and  _569
REMARK  234  A    between atoms: _569  and  _570
REMARK  235  A    between atoms: _569  and  _572
REMARK  236  A    between atoms: _572  and  _573
REMARK  237  A    between atoms: _573  and  _574
REMARK  238  A    between atoms: _577  and  _579
REMARK  239  A    between atoms: _579  and  _580
REMARK  240  A    between atoms: _579  and  _582
REMARK  241  A    between atoms: _585  and  _587
REMARK  242  A    between atoms: _587  and  _588
REMARK  243  A    between atoms: _587  and  _590
REMARK  244  A    between atoms: _590  and  _591
REMARK  245  A    between atoms: _594  and  _596
REMARK  246  A    between atoms: _596  and  _597
REMARK  247  A    between atoms: _599  and  _601
REMARK  248  A    between atoms: _601  and  _602
REMARK  249  A    between atoms: _601  and  _604
REMARK  250  A    between atoms: _604  and  _605
REMARK  251  A    between atoms: _610  and  _611
REMARK  252  A    between atoms: _613  and  _615
REMARK  253  A    between atoms: _615  and  _616
REMARK  254  A    between atoms: _615  and  _618
REMARK  255  A    between atoms: _618  and  _619
REMARK  256  A    between atoms: _622  and  _624
REMARK  257  A    between atoms: _624  and  _625
REMARK  258  A    between atoms: _624  and  _627
REMARK  259  A    between atoms: _627  and  _628
REMARK  260  A    between atoms: _631  and  _633
REMARK  261  A    between atoms: _633  and  _634
REMARK  262  A    between atoms: _637  and  _639
REMARK  263  A    between atoms: _639  and  _640
REMARK  264  A    between atoms: _639  and  _642
REMARK  265  A    between atoms: _642  and  _643
REMARK  266  A    between atoms: _646  and  _648
REMARK  267  A    between atoms: _648  and  _649
REMARK  268  A    between atoms: _651  and  _653
REMARK  269  A    between atoms: _653  and  _654
REMARK  270  A    between atoms: _653  and  _656
REMARK  271  A    between atoms: _656  and  _657
REMARK  272  A    between atoms: _659  and  _661
REMARK  273  A    between atoms: _661  and  _662
REMARK  274  A    between atoms: _661  and  _664
REMARK  275  A    between atoms: _667  and  _669
REMARK  276  A    between atoms: _669  and  _670
REMARK  277  A    between atoms: _669  and  _672
REMARK  278  A    between atoms: _672  and  _673
REMARK  279  A    between atoms: _676  and  _678
REMARK  280  A    between atoms: _678  and  _679
REMARK  281  A    between atoms: _678  and  _681
REMARK  282  A    between atoms: _681  and  _682
REMARK                            x       y       z     vdW  Elec       q    Type
REMARK                         _______ _______ _______ _____ _____    ______ ____
ROOT
ATOM      1  CA  VAL A   3      13.854   7.039  42.895  0.00  0.00    +0.149 C 
ENDROOT
BRANCH   1   2
ATOM      2  C   VAL A   3      12.689   7.859  42.310  0.00  0.00    +0.241 C 
ATOM      3  O   VAL A   3      11.925   8.477  43.047  0.00  0.00    -0.273 OA
ATOM      4  N   SER A   4      12.548   7.844  40.985  0.00  0.00    -0.295 N 
ATOM      5  H   SER A   4      13.204   7.273  40.415  0.00  0.00    +0.150 HD
BRANCH   4   6
ATOM      6  CA  SER A   4      11.495   8.609  40.303  0.00  0.00    +0.178 C 
BRANCH   6   7
ATOM      7  C   SER A   4      10.106   8.250  40.821  0.00  0.00    +0.243 C 
ATOM      8  O   SER A   4       9.842   7.093  41.152  0.00  0.00    -0.273 OA
ATOM      9  N   ASN A   5       9.215   9.236  40.873  0.00  0.00    -0.298 N 
ATOM     10  H   ASN A   5       9.493  10.193  40.577  0.00  0.00    +0.150 HD
BRANCH   9  11
ATOM     11  CA  ASN A   5       7.852   8.996  41.339  0.00  0.00    +0.146 C 
BRANCH  11  12
ATOM     12  C   ASN A   5       6.876   8.830  40.186  0.00  0.00    +0.227 C 
ATOM     13  O   ASN A   5       7.064   9.410  39.111  0.00  0.00    -0.286 OA
ENDBRANCH  11  12
BRANCH  11  14
ATOM     14  CB  ASN A   5       7.394  10.141  42.243  0.00  0.00    +0.112 C 
BRANCH  14  15
ATOM     15  CG  ASN A   5       7.893   9.988  43.664  0.00  0.00    +0.222 C 
ATOM     16  ND2 ASN A   5       8.355  11.086  44.254  0.00  0.00    -0.329 N 
ATOM     17 HD21 ASN A   5       8.711  11.041  45.230  0.00  0.00    +0.145 HD
ATOM     18 HD22 ASN A   5       8.360  11.990  43.740  0.00  0.00    +0.145 HD
ATOM     19  OD1 ASN A   5       7.864   8.888  44.229  0.00  0.00    -0.275 OA
ENDBRANCH  14  15
ENDBRANCH  11  14
ENDBRANCH   9  11
ENDBRANCH   6   7
BRANCH   6  20
ATOM     20  CB  SER A   4      11.535   8.339  38.796  0.00  0.00    +0.166 C 
BRANCH  20  21
ATOM     21  OG  SER A   4      12.828   8.558  38.273  0.00  0.00    -0.380 OA
ATOM     22  H   SER A   4      12.824   8.376  37.300  0.00  0.00    +0.211 HD
ENDBRANCH  20  21
ENDBRANCH   6  20
ENDBRANCH   4   6
ENDBRANCH   1   2
BRANCH   1  25
ATOM     23  C   VAL A   2      14.231   4.706  42.272  0.00  0.00    +0.241 C 
ATOM     24  O   VAL A   2      13.908   4.292  43.388  0.00  0.00    -0.273 OA
ATOM     25  N   VAL A   3      14.239   5.996  41.953  0.00  0.00    -0.297 N 
ATOM     26  H   VAL A   3      14.531   6.272  40.994  0.00  0.00    +0.150 HD
BRANCH  23  27
ATOM     27  CA  VAL A   2      14.656   3.733  41.168  0.00  0.00    +0.148 C 
BRANCH  27  29
ATOM     28  C   LEU A   1      16.910   2.949  41.624  0.00  0.00    +0.238 C 
ATOM     29  N   VAL A   2      15.597   2.762  41.700  0.00  0.00    -0.297 N 
ATOM     30  H   VAL A   2      15.233   1.899  42.152  0.00  0.00    +0.150 HD
ATOM     31  O   LEU A   1      17.419   3.945  41.097  0.00  0.00    -0.274 OA
BRANCH  28  32
ATOM     32  CA  LEU A   1      17.787   1.859  42.231  0.00  0.00    +0.145 C 
BRANCH  32  33
ATOM     33  N   LEU A   1      18.453   1.158  41.129  0.00  0.00    -0.238 NA
ATOM     34  H   LEU A   1      19.094   1.693  40.509  0.00  0.00    +0.142 HD
ENDBRANCH  32  33
BRANCH  32  35
ATOM     35  CB  LEU A   1      18.818   2.507  43.163  0.00  0.00    +0.026 C 
BRANCH  35  36
ATOM     36  CG  LEU A   1      18.520   2.666  44.666  0.00  0.00    +0.002 C 
ATOM     37  CD2 LEU A   1      19.508   3.659  45.267  0.00  0.00    +0.000 C 
ATOM     38  CD1 LEU A   1      17.107   3.140  44.907  0.00  0.00    +0.000 C 
ENDBRANCH  35  36
ENDBRANCH  32  35
ENDBRANCH  28  32
ENDBRANCH  27  29
BRANCH  27  39
ATOM     39  CB  VAL A   2      13.392   3.036  40.587  0.00  0.00    +0.027 C 
ATOM     40  CG2 VAL A   2      12.469   4.070  39.949  0.00  0.00    +0.002 C 
ATOM     41  CG1 VAL A   2      13.799   1.985  39.549  0.00  0.00    +0.002 C 
ENDBRANCH  27  39
ENDBRANCH  23  27
ENDBRANCH   1  25
BRANCH   1  42
ATOM     42  CB  VAL A   3      15.064   7.979  43.199  0.00  0.00    +0.027 C 
ATOM     43  CG2 VAL A   3      14.681   9.026  44.224  0.00  0.00    +0.002 C 
ATOM     44  CG1 VAL A   3      16.258   7.156  43.699  0.00  0.00    +0.002 C 
ENDBRANCH   1  42
TORSDOF 18
REMARK  Name = ../refined-set-2016/4i9h/4i9h_pocket.pdb
REMARK  282 active torsions:
REMARK  status: ('A' for Active; 'I' for Inactive)
REMARK    1  A    between atoms: _1  and  _3
REMARK    2  A    between atoms: _3  and  _4
REMARK    3  A    between atoms: _3  and  _6
REMARK    4  A    between atoms: _9  and  _11
REMARK    5  A    between atoms: _11  and  _12
REMARK    6  A    between atoms: _11  and  _14
REMARK    7  A    between atoms: _17  and  _19
REMARK    8  A    between atoms: _19  and  _20
REMARK    9  A    between atoms: _22  and  _24
REMARK   10  A    between atoms: _24  and  _25
REMARK   11  A    between atoms: _24  and  _27
REMARK   12  A    between atoms: _30  and  _32
REMARK   13  A    between atoms: _32  and  _33
REMARK   14  A    between atoms: _35  and  _37
REMARK   15  A    between atoms: _37  and  _38
REMARK   16  A    between atoms: _41  and  _43
REMARK   17  A    between atoms: _43  and  _44
REMARK   18  A    between atoms: _43  and  _46
REMARK   19  A    between atoms: _49  and  _51
REMARK   20  A    between atoms: _51  and  _52
REMARK   21  A    between atoms: _54  and  _56
REMARK   22  A    between atoms: _56  and  _57
REMARK   23  A    between atoms: _56  and  _59
REMARK   24  A    between atoms: _59  and  _60
REMARK   25  A    between atoms: _60  and  _61
REMARK   26  A    between atoms: _63  and  _65
REMARK   27  A    between atoms: _65  and  _66
REMARK   28  A    between atoms: _65  and  _68
REMARK   29  A    between atoms: _70  and  _72
REMARK   30  A    between atoms: _72  and  _73
REMARK   31  A    between atoms: _72  and  _75
REMARK   32  A    between atoms: _75  and  _76
REMARK   33  A    between atoms: _79  and  _81
REMARK   34  A    between atoms: _81  and  _82
REMARK   35  A    between atoms: _81  and  _84
REMARK   36  A    between atoms: _87  and  _89
REMARK   37  A    between atoms: _89  and  _90
REMARK   38  A    between atoms: _89  and  _92
REMARK   39  A    between atoms: _92  and  _93
REMARK   40  A    between atoms: _96  and  _98
REMARK   41  A    between atoms: _98  and  _99
REMARK   42  A    between atoms: _98  and  _101
REMARK   43  A    between atoms: _104  and  _106
REMARK   44  A    between atoms: _106  and  _107
REMARK   45  A    between atoms: _106  and  _109
REMARK   46  A    between atoms: _109  and  _110
REMARK   47  A    between atoms: _110  and  _111
REMARK   48  A    between atoms: _113  and  _115
REMARK   49  A    between atoms: _115  and  _116
REMARK   50  A    between atoms: _115  and  _118
REMARK   51  A    between atoms: _118  and  _119
REMARK   52  A    between atoms: _119  and  _120
REMARK   53  A    between atoms: _120  and  _121
REMARK   54  A    between atoms: _121  and  _122
REMARK   55  A    between atoms: _126  and  _128
REMARK   56  A    between atoms: _128  and  _129
REMARK   57  A    between atoms: _128  and  _131
REMARK   58  A    between atoms: _131  and  _132
REMARK   59  A    between atoms: _135  and  _137
REMARK   60  A    between atoms: _137  and  _138
REMARK   61  A    between atoms: _137  and  _140
REMARK   62  A    between atoms: _140  and  _141
REMARK   63  A    between atoms: _141  and  _142
REMARK   64  A    between atoms: _142  and  _143
REMARK   65  A    between atoms: _143  and  _144
REMARK   66  A    between atoms: _148  and  _150
REMARK   67  A    between atoms: _150  and  _151
REMARK   68  A    between atoms: _150  and  _153
REMARK   69  A    between atoms: _153  and  _154
REMARK   70  A    between atoms: _159  and  _160
REMARK   71  A    between atoms: _162  and  _164
REMARK   72  A    between atoms: _164  and  _165
REMARK   73  A    between atoms: _164  and  _167
REMARK   74  A    between atoms: _167  and  _168
REMARK   75  A    between atoms: _171  and  _173
REMARK   76  A    between atoms: _173  and  _174
REMARK   77  A    between atoms: _173  and  _176
REMARK   78  A    between atoms: _176  and  _177
REMARK   79  A    between atoms: _180  and  _182
REMARK   80  A    between atoms: _182  and  _183
REMARK   81  A    between atoms: _182  and  _185
REMARK   82  A    between atoms: _185  and  _186
REMARK   83  A    between atoms: _189  and  _191
REMARK   84  A    between atoms: _191  and  _192
REMARK   85  A    between atoms: _195  and  _197
REMARK   86  A    between atoms: _197  and  _198
REMARK   87  A    between atoms: _200  and  _202
REMARK   88  A    between atoms: _202  and  _203
REMARK   89  A    between atoms: _206  and  _208
REMARK   90  A    between atoms: _208  and  _209
REMARK   91  A    between atoms: _208  and  _211
REMARK   92  A    between atoms: _211  and  _212
REMARK   93  A    between atoms: _212  and  _213
REMARK   94  A    between atoms: _213  and  _214
REMARK   95  A    between atoms: _223  and  _225
REMARK   96  A    between atoms: _225  and  _226
REMARK   97  A    between atoms: _225  and  _228
REMARK   98  A    between atoms: _228  and  _229
REMARK   99  A    between atoms: _229  and  _230
REMARK  100  A    between atoms: _235  and  _237
REMARK  101  A    between atoms: _237  and  _238
REMARK  102  A    between atoms: _237  and  _240
REMARK  103  A    between atoms: _240  and  _241
REMARK  104  A    between atoms: _246  and  _248
REMARK  105  A    between atoms: _248  and  _249
REMARK  106  A    between atoms: _248  and  _251
REMARK  107  A    between atoms: _251  and  _252
REMARK  108  A    between atoms: _255  and  _257
REMARK  109  A    between atoms: _257  and  _258
REMARK  110  A    between atoms: _257  and  _260
REMARK  111  A    between atoms: _260  and  _261
REMARK  112  A    between atoms: _261  and  _262
REMARK  113  A    between atoms: _267  and  _269
REMARK  114  A    between atoms: _269  and  _270
REMARK  115  A    between atoms: _269  and  _272
REMARK  116  A    between atoms: _272  and  _273
REMARK  117  A    between atoms: _273  and  _274
REMARK  118  A    between atoms: _274  and  _275
REMARK  119  A    between atoms: _284  and  _286
REMARK  120  A    between atoms: _286  and  _287
REMARK  121  A    between atoms: _286  and  _289
REMARK  122  A    between atoms: _289  and  _290
REMARK  123  A    between atoms: _295  and  _297
REMARK  124  A    between atoms: _297  and  _298
REMARK  125  A    between atoms: _297  and  _300
REMARK  126  A    between atoms: _303  and  _305
REMARK  127  A    between atoms: _305  and  _306
REMARK  128  A    between atoms: _305  and  _308
REMARK  129  A    between atoms: _308  and  _309
REMARK  130  A    between atoms: _314  and  _316
REMARK  131  A    between atoms: _316  and  _317
REMARK  132  A    between atoms: _316  and  _319
REMARK  133  A    between atoms: _319  and  _320
REMARK  134  A    between atoms: _323  and  _325
REMARK  135  A    between atoms: _325  and  _326
REMARK  136  A    between atoms: _325  and  _328
REMARK  137  A    between atoms: _328  and  _329
REMARK  138  A    between atoms: _335  and  _337
REMARK  139  A    between atoms: _337  and  _338
REMARK  140  A    between atoms: _337  and  _340
REMARK  141  A    between atoms: _340  and  _341
REMARK  142  A    between atoms: _341  and  _342
REMARK  143  A    between atoms: _342  and  _343
REMARK  144  A    between atoms: _343  and  _344
REMARK  145  A    between atoms: _348  and  _350
REMARK  146  A    between atoms: _350  and  _351
REMARK  147  A    between atoms: _350  and  _353
REMARK  148  A    between atoms: _353  and  _354
REMARK  149  A    between atoms: _360  and  _362
REMARK  150  A    between atoms: _362  and  _363
REMARK  151  A    between atoms: _362  and  _365
REMARK  152  A    between atoms: _365  and  _366
REMARK  153  A    between atoms: _369  and  _371
REMARK  154  A    between atoms: _371  and  _372
REMARK  155  A    between atoms: _371  and  _374
REMARK  156  A    between atoms: _374  and  _375
REMARK  157  A    between atoms: _378  and  _380
REMARK  158  A    between atoms: _380  and  _381
REMARK  159  A    between atoms: _380  and  _383
REMARK  160  A    between atoms: _383  and  _384
REMARK  161  A    between atoms: _389  and  _391
REMARK  162  A    between atoms: _391  and  _392
REMARK  163  A    between atoms: _391  and  _394
REMARK  164  A    between atoms: _394  and  _395
REMARK  165  A    between atoms: _398  and  _400
REMARK  166  A    between atoms: _400  and  _401
REMARK  167  A    between atoms: _400  and  _403
REMARK  168  A    between atoms: _406  and  _408
REMARK  169  A    between atoms: _408  and  _409
REMARK  170  A    between atoms: _408  and  _411
REMARK  171  A    between atoms: _414  and  _416
REMARK  172  A    between atoms: _416  and  _417
REMARK  173  A    between atoms: _416  and  _419
REMARK  174  A    between atoms: _419  and  _420
REMARK  175  A    between atoms: _422  and  _424
REMARK  176  A    between atoms: _424  and  _425
REMARK  177  A    between atoms: _424  and  _427
REMARK  178  A    between atoms: _427  and  _428
REMARK  179  A    between atoms: _433  and  _435
REMARK  180  A    between atoms: _435  and  _436
REMARK  181  A    between atoms: _435  and  _438
REMARK  182  A    between atoms: _441  and  _443
REMARK  183  A    between atoms: _443  and  _444
REMARK  184  A    between atoms: _443  and  _446
REMARK  185  A    between atoms: _446  and  _447
REMARK  186  A    between atoms: _450  and  _452
REMARK  187  A    between atoms: _452  and  _453
REMARK  188  A    between atoms: _452  and  _455
REMARK  189  A    between atoms: _455  and  _456
REMARK  190  A    between atoms: _458  and  _460
REMARK  191  A    between atoms: _460  and  _461
REMARK  192  A    between atoms: _463  and  _465
REMARK  193  A    between atoms: _465  and  _466
REMARK  194  A    between atoms: _465  and  _468
REMARK  195  A    between atoms: _468  and  _469
REMARK  196  A    between atoms: _472  and  _474
REMARK  197  A    between atoms: _474  and  _475
REMARK  198  A    between atoms: _474  and  _477
REMARK  199  A    between atoms: _477  and  _478
REMARK  200  A    between atoms: _481  and  _483
REMARK  201  A    between atoms: _483  and  _484
REMARK  202  A    between atoms: _483  and  _486
REMARK  203  A    between atoms: _486  and  _487
REMARK  204  A    between atoms: _487  and  _488
REMARK  205  A    between atoms: _488  and  _489
REMARK  206  A    between atoms: _498  and  _500
REMARK  207  A    between atoms: _500  and  _501
REMARK  208  A    between atoms: _500  and  _503
REMARK  209  A    between atoms: _503  and  _504
REMARK  210  A    between atoms: _509  and  _511
REMARK  211  A    between atoms: _511  and  _512
REMARK  212  A    between atoms: _514  and  _516
REMARK  213  A    between atoms: _516  and  _517
REMARK  214  A    between atoms: _516  and  _519
REMARK  215  A    between atoms: _522  and  _524
REMARK  216  A    between atoms: _524  and  _525
REMARK  217  A    between atoms: _524  and  _527
REMARK  218  A    between atoms: _530  and  _532
REMARK  219  A    between atoms: _532  and  _533
REMARK  220  A    between atoms: _532  and  _535
REMARK  221  A    between atoms: _535  and  _536
REMARK  222  A    between atoms: _539  and  _541
REMARK  223  A    between atoms: _541  and  _542
REMARK  224  A    between atoms: _541  and  _544
REMARK  225  A    between atoms: _544  and  _545
REMARK  226  A    between atoms: _547  and  _549
REMARK  227  A    between atoms: _549  and  _550
REMARK  228  A    between atoms: _553  and  _555
REMARK  229  A    between atoms: _555  and  _556
REMARK  230  A    between atoms: _555  and  _558
REMARK  231  A    between atoms: _558  and  _559
REMARK  232  A    between atoms: _564  and  _565
REMARK  233  A    between atoms: _567  and  _569
REMARK  234  A    between atoms: _569  and  _570
REMARK  235  A    between atoms: _569  and  _572
REMARK  236  A    between atoms: _572  and  _573
REMARK  237  A    between atoms: _573  and  _574
REMARK  238  A    between atoms: _577  and  _579
REMARK  239  A    between atoms: _579  and  _580
REMARK  240  A    between atoms: _579  and  _582
REMARK  241  A    between atoms: _585  and  _587
REMARK  242  A    between atoms: _587  and  _588
REMARK  243  A    between atoms: _587  and  _590
REMARK  244  A    between atoms: _590  and  _591
REMARK  245  A    between atoms: _594  and  _596
REMARK  246  A    between atoms: _596  and  _597
REMARK  247  A    between atoms: _599  and  _601
REMARK  248  A    between atoms: _601  and  _602
REMARK  249  A    between atoms: _601  and  _604
REMARK  250  A    between atoms: _604  and  _605
REMARK  251  A    between atoms: _610  and  _611
REMARK  252  A    between atoms: _613  and  _615
REMARK  253  A    between atoms: _615  and  _616
REMARK  254  A    between atoms: _615  and  _618
REMARK  255  A    between atoms: _618  and  _619
REMARK  256  A    between atoms: _622  and  _624
REMARK  257  A    between atoms: _624  and  _625
REMARK  258  A    between atoms: _624  and  _627
REMARK  259  A    between atoms: _627  and  _628
REMARK  260  A    between atoms: _631  and  _633
REMARK  261  A    between atoms: _633  and  _634
REMARK  262  A    between atoms: _637  and  _639
REMARK  263  A    between atoms: _639  and  _640
REMARK  264  A    between atoms: _639  and  _642
REMARK  265  A    between atoms: _642  and  _643
REMARK  266  A    between atoms: _646  and  _648
REMARK  267  A    between atoms: _648  and  _649
REMARK  268  A    between atoms: _651  and  _653
REMARK  269  A    between atoms: _653  and  _654
REMARK  270  A    between atoms: _653  and  _656
REMARK  271  A    between atoms: _656  and  _657
REMARK  272  A    between atoms: _659  and  _661
REMARK  273  A    between atoms: _661  and  _662
REMARK  274  A    between atoms: _661  and  _664
REMARK  275  A    between atoms: _667  and  _669
REMARK  276  A    between atoms: _669  and  _670
REMARK  277  A    between atoms: _669  and  _672
REMARK  278  A    between atoms: _672  and  _673
REMARK  279  A    between atoms: _676  and  _678
REMARK  280  A    between atoms: _678  and  _679
REMARK  281  A    between atoms: _678  and  _681
REMARK  282  A    between atoms: _681  and  _682
REMARK                            x       y       z     vdW  Elec       q    Type
REMARK                         _______ _______ _______ _____ _____    ______ ____
ROOT
ATOM      1  CA  VAL A   1       8.326   5.124  42.905  0.00  0.00    +0.133 C 
ENDROOT
BRANCH   1   2
ATOM      2  CB  VAL A   1       9.265   5.486  44.088  0.00  0.00    +0.023 C 
ATOM      3  CG2 VAL A   1       8.571   5.254  45.412  0.00  0.00    +0.002 C 
ATOM      4  CG1 VAL A   1      10.553   4.672  43.989  0.00  0.00    +0.002 C 
ENDBRANCH   1   2
BRANCH   1   5
ATOM      5  N   VAL A   1       7.155   5.985  42.873  0.00  0.00    -0.239 NA
ATOM      6  H   VAL A   1       6.904   6.557  43.705  0.00  0.00    +0.142 HD
ENDBRANCH   1   5
BRANCH   1   7
ATOM      7  C   VAL A   1       8.040   3.628  42.921  0.00  0.00    +0.224 C 
ATOM      8  O   VAL A   1       8.784   2.862  42.320  0.00  0.00    -0.287 OA
ENDBRANCH   1   7
TORSDOF 3
REMARK  Name = ../refined-set-2016/4i9h/4i9h_pocket.pdb
REMARK  282 active torsions:
REMARK  status: ('A' for Active; 'I' for Inactive)
REMARK    1  A    between atoms: _1  and  _3
REMARK    2  A    between atoms: _3  and  _4
REMARK    3  A    between atoms: _3  and  _6
REMARK    4  A    between atoms: _9  and  _11
REMARK    5  A    between atoms: _11  and  _12
REMARK    6  A    between atoms: _11  and  _14
REMARK    7  A    between atoms: _17  and  _19
REMARK    8  A    between atoms: _19  and  _20
REMARK    9  A    between atoms: _22  and  _24
REMARK   10  A    between atoms: _24  and  _25
REMARK   11  A    between atoms: _24  and  _27
REMARK   12  A    between atoms: _30  and  _32
REMARK   13  A    between atoms: _32  and  _33
REMARK   14  A    between atoms: _35  and  _37
REMARK   15  A    between atoms: _37  and  _38
REMARK   16  A    between atoms: _41  and  _43
REMARK   17  A    between atoms: _43  and  _44
REMARK   18  A    between atoms: _43  and  _46
REMARK   19  A    between atoms: _49  and  _51
REMARK   20  A    between atoms: _51  and  _52
REMARK   21  A    between atoms: _54  and  _56
REMARK   22  A    between atoms: _56  and  _57
REMARK   23  A    between atoms: _56  and  _59
REMARK   24  A    between atoms: _59  and  _60
REMARK   25  A    between atoms: _60  and  _61
REMARK   26  A    between atoms: _63  and  _65
REMARK   27  A    between atoms: _65  and  _66
REMARK   28  A    between atoms: _65  and  _68
REMARK   29  A    between atoms: _70  and  _72
REMARK   30  A    between atoms: _72  and  _73
REMARK   31  A    between atoms: _72  and  _75
REMARK   32  A    between atoms: _75  and  _76
REMARK   33  A    between atoms: _79  and  _81
REMARK   34  A    between atoms: _81  and  _82
REMARK   35  A    between atoms: _81  and  _84
REMARK   36  A    between atoms: _87  and  _89
REMARK   37  A    between atoms: _89  and  _90
REMARK   38  A    between atoms: _89  and  _92
REMARK   39  A    between atoms: _92  and  _93
REMARK   40  A    between atoms: _96  and  _98
REMARK   41  A    between atoms: _98  and  _99
REMARK   42  A    between atoms: _98  and  _101
REMARK   43  A    between atoms: _104  and  _106
REMARK   44  A    between atoms: _106  and  _107
REMARK   45  A    between atoms: _106  and  _109
REMARK   46  A    between atoms: _109  and  _110
REMARK   47  A    between atoms: _110  and  _111
REMARK   48  A    between atoms: _113  and  _115
REMARK   49  A    between atoms: _115  and  _116
REMARK   50  A    between atoms: _115  and  _118
REMARK   51  A    between atoms: _118  and  _119
REMARK   52  A    between atoms: _119  and  _120
REMARK   53  A    between atoms: _120  and  _121
REMARK   54  A    between atoms: _121  and  _122
REMARK   55  A    between atoms: _126  and  _128
REMARK   56  A    between atoms: _128  and  _129
REMARK   57  A    between atoms: _128  and  _131
REMARK   58  A    between atoms: _131  and  _132
REMARK   59  A    between atoms: _135  and  _137
REMARK   60  A    between atoms: _137  and  _138
REMARK   61  A    between atoms: _137  and  _140
REMARK   62  A    between atoms: _140  and  _141
REMARK   63  A    between atoms: _141  and  _142
REMARK   64  A    between atoms: _142  and  _143
REMARK   65  A    between atoms: _143  and  _144
REMARK   66  A    between atoms: _148  and  _150
REMARK   67  A    between atoms: _150  and  _151
REMARK   68  A    between atoms: _150  and  _153
REMARK   69  A    between atoms: _153  and  _154
REMARK   70  A    between atoms: _159  and  _160
REMARK   71  A    between atoms: _162  and  _164
REMARK   72  A    between atoms: _164  and  _165
REMARK   73  A    between atoms: _164  and  _167
REMARK   74  A    between atoms: _167  and  _168
REMARK   75  A    between atoms: _171  and  _173
REMARK   76  A    between atoms: _173  and  _174
REMARK   77  A    between atoms: _173  and  _176
REMARK   78  A    between atoms: _176  and  _177
REMARK   79  A    between atoms: _180  and  _182
REMARK   80  A    between atoms: _182  and  _183
REMARK   81  A    between atoms: _182  and  _185
REMARK   82  A    between atoms: _185  and  _186
REMARK   83  A    between atoms: _189  and  _191
REMARK   84  A    between atoms: _191  and  _192
REMARK   85  A    between atoms: _195  and  _197
REMARK   86  A    between atoms: _197  and  _198
REMARK   87  A    between atoms: _200  and  _202
REMARK   88  A    between atoms: _202  and  _203
REMARK   89  A    between atoms: _206  and  _208
REMARK   90  A    between atoms: _208  and  _209
REMARK   91  A    between atoms: _208  and  _211
REMARK   92  A    between atoms: _211  and  _212
REMARK   93  A    between atoms: _212  and  _213
REMARK   94  A    between atoms: _213  and  _214
REMARK   95  A    between atoms: _223  and  _225
REMARK   96  A    between atoms: _225  and  _226
REMARK   97  A    between atoms: _225  and  _228
REMARK   98  A    between atoms: _228  and  _229
REMARK   99  A    between atoms: _229  and  _230
REMARK  100  A    between atoms: _235  and  _237
REMARK  101  A    between atoms: _237  and  _238
REMARK  102  A    between atoms: _237  and  _240
REMARK  103  A    between atoms: _240  and  _241
REMARK  104  A    between atoms: _246  and  _248
REMARK  105  A    between atoms: _248  and  _249
REMARK  106  A    between atoms: _248  and  _251
REMARK  107  A    between atoms: _251  and  _252
REMARK  108  A    between atoms: _255  and  _257
REMARK  109  A    between atoms: _257  and  _258
REMARK  110  A    between atoms: _257  and  _260
REMARK  111  A    between atoms: _260  and  _261
REMARK  112  A    between atoms: _261  and  _262
REMARK  113  A    between atoms: _267  and  _269
REMARK  114  A    between atoms: _269  and  _270
REMARK  115  A    between atoms: _269  and  _272
REMARK  116  A    between atoms: _272  and  _273
REMARK  117  A    between atoms: _273  and  _274
REMARK  118  A    between atoms: _274  and  _275
REMARK  119  A    between atoms: _284  and  _286
REMARK  120  A    between atoms: _286  and  _287
REMARK  121  A    between atoms: _286  and  _289
REMARK  122  A    between atoms: _289  and  _290
REMARK  123  A    between atoms: _295  and  _297
REMARK  124  A    between atoms: _297  and  _298
REMARK  125  A    between atoms: _297  and  _300
REMARK  126  A    between atoms: _303  and  _305
REMARK  127  A    between atoms: _305  and  _306
REMARK  128  A    between atoms: _305  and  _308
REMARK  129  A    between atoms: _308  and  _309
REMARK  130  A    between atoms: _314  and  _316
REMARK  131  A    between atoms: _316  and  _317
REMARK  132  A    between atoms: _316  and  _319
REMARK  133  A    between atoms: _319  and  _320
REMARK  134  A    between atoms: _323  and  _325
REMARK  135  A    between atoms: _325  and  _326
REMARK  136  A    between atoms: _325  and  _328
REMARK  137  A    between atoms: _328  and  _329
REMARK  138  A    between atoms: _335  and  _337
REMARK  139  A    between atoms: _337  and  _338
REMARK  140  A    between atoms: _337  and  _340
REMARK  141  A    between atoms: _340  and  _341
REMARK  142  A    between atoms: _341  and  _342
REMARK  143  A    between atoms: _342  and  _343
REMARK  144  A    between atoms: _343  and  _344
REMARK  145  A    between atoms: _348  and  _350
REMARK  146  A    between atoms: _350  and  _351
REMARK  147  A    between atoms: _350  and  _353
REMARK  148  A    between atoms: _353  and  _354
REMARK  149  A    between atoms: _360  and  _362
REMARK  150  A    between atoms: _362  and  _363
REMARK  151  A    between atoms: _362  and  _365
REMARK  152  A    between atoms: _365  and  _366
REMARK  153  A    between atoms: _369  and  _371
REMARK  154  A    between atoms: _371  and  _372
REMARK  155  A    between atoms: _371  and  _374
REMARK  156  A    between atoms: _374  and  _375
REMARK  157  A    between atoms: _378  and  _380
REMARK  158  A    between atoms: _380  and  _381
REMARK  159  A    between atoms: _380  and  _383
REMARK  160  A    between atoms: _383  and  _384
REMARK  161  A    between atoms: _389  and  _391
REMARK  162  A    between atoms: _391  and  _392
REMARK  163  A    between atoms: _391  and  _394
REMARK  164  A    between atoms: _394  and  _395
REMARK  165  A    between atoms: _398  and  _400
REMARK  166  A    between atoms: _400  and  _401
REMARK  167  A    between atoms: _400  and  _403
REMARK  168  A    between atoms: _406  and  _408
REMARK  169  A    between atoms: _408  and  _409
REMARK  170  A    between atoms: _408  and  _411
REMARK  171  A    between atoms: _414  and  _416
REMARK  172  A    between atoms: _416  and  _417
REMARK  173  A    between atoms: _416  and  _419
REMARK  174  A    between atoms: _419  and  _420
REMARK  175  A    between atoms: _422  and  _424
REMARK  176  A    between atoms: _424  and  _425
REMARK  177  A    between atoms: _424  and  _427
REMARK  178  A    between atoms: _427  and  _428
REMARK  179  A    between atoms: _433  and  _435
REMARK  180  A    between atoms: _435  and  _436
REMARK  181  A    between atoms: _435  and  _438
REMARK  182  A    between atoms: _441  and  _443
REMARK  183  A    between atoms: _443  and  _444
REMARK  184  A    between atoms: _443  and  _446
REMARK  185  A    between atoms: _446  and  _447
REMARK  186  A    between atoms: _450  and  _452
REMARK  187  A    between atoms: _452  and  _453
REMARK  188  A    between atoms: _452  and  _455
REMARK  189  A    between atoms: _455  and  _456
REMARK  190  A    between atoms: _458  and  _460
REMARK  191  A    between atoms: _460  and  _461
REMARK  192  A    between atoms: _463  and  _465
REMARK  193  A    between atoms: _465  and  _466
REMARK  194  A    between atoms: _465  and  _468
REMARK  195  A    between atoms: _468  and  _469
REMARK  196  A    between atoms: _472  and  _474
REMARK  197  A    between atoms: _474  and  _475
REMARK  198  A    between atoms: _474  and  _477
REMARK  199  A    between atoms: _477  and  _478
REMARK  200  A    between atoms: _481  and  _483
REMARK  201  A    between atoms: _483  and  _484
REMARK  202  A    between atoms: _483  and  _486
REMARK  203  A    between atoms: _486  and  _487
REMARK  204  A    between atoms: _487  and  _488
REMARK  205  A    between atoms: _488  and  _489
REMARK  206  A    between atoms: _498  and  _500
REMARK  207  A    between atoms: _500  and  _501
REMARK  208  A    between atoms: _500  and  _503
REMARK  209  A    between atoms: _503  and  _504
REMARK  210  A    between atoms: _509  and  _511
REMARK  211  A    between atoms: _511  and  _512
REMARK  212  A    between atoms: _514  and  _516
REMARK  213  A    between atoms: _516  and  _517
REMARK  214  A    between atoms: _516  and  _519
REMARK  215  A    between atoms: _522  and  _524
REMARK  216  A    between atoms: _524  and  _525
REMARK  217  A    between atoms: _524  and  _527
REMARK  218  A    between atoms: _530  and  _532
REMARK  219  A    between atoms: _532  and  _533
REMARK  220  A    between atoms: _532  and  _535
REMARK  221  A    between atoms: _535  and  _536
REMARK  222  A    between atoms: _539  and  _541
REMARK  223  A    between atoms: _541  and  _542
REMARK  224  A    between atoms: _541  and  _544
REMARK  225  A    between atoms: _544  and  _545
REMARK  226  A    between atoms: _547  and  _549
REMARK  227  A    between atoms: _549  and  _550
REMARK  228  A    between atoms: _553  and  _555
REMARK  229  A    between atoms: _555  and  _556
REMARK  230  A    between atoms: _555  and  _558
REMARK  231  A    between atoms: _558  and  _559
REMARK  232  A    between atoms: _564  and  _565
REMARK  233  A    between atoms: _567  and  _569
REMARK  234  A    between atoms: _569  and  _570
REMARK  235  A    between atoms: _569  and  _572
REMARK  236  A    between atoms: _572  and  _573
REMARK  237  A    between atoms: _573  and  _574
REMARK  238  A    between atoms: _577  and  _579
REMARK  239  A    between atoms: _579  and  _580
REMARK  240  A    between atoms: _579  and  _582
REMARK  241  A    between atoms: _585  and  _587
REMARK  242  A    between atoms: _587  and  _588
REMARK  243  A    between atoms: _587  and  _590
REMARK  244  A    between atoms: _590  and  _591
REMARK  245  A    between atoms: _594  and  _596
REMARK  246  A    between atoms: _596  and  _597
REMARK  247  A    between atoms: _599  and  _601
REMARK  248  A    between atoms: _601  and  _602
REMARK  249  A    between atoms: _601  and  _604
REMARK  250  A    between atoms: _604  and  _605
REMARK  251  A    between atoms: _610  and  _611
REMARK  252  A    between atoms: _613  and  _615
REMARK  253  A    between atoms: _615  and  _616
REMARK  254  A    between atoms: _615  and  _618
REMARK  255  A    between atoms: _618  and  _619
REMARK  256  A    between atoms: _622  and  _624
REMARK  257  A    between atoms: _624  and  _625
REMARK  258  A    between atoms: _624  and  _627
REMARK  259  A    between atoms: _627  and  _628
REMARK  260  A    between atoms: _631  and  _633
REMARK  261  A    between atoms: _633  and  _634
REMARK  262  A    between atoms: _637  and  _639
REMARK  263  A    between atoms: _639  and  _640
REMARK  264  A    between atoms: _639  and  _642
REMARK  265  A    between atoms: _642  and  _643
REMARK  266  A    between atoms: _646  and  _648
REMARK  267  A    between atoms: _648  and  _649
REMARK  268  A    between atoms: _651  and  _653
REMARK  269  A    between atoms: _653  and  _654
REMARK  270  A    between atoms: _653  and  _656
REMARK  271  A    between atoms: _656  and  _657
REMARK  272  A    between atoms: _659  and  _661
REMARK  273  A    between atoms: _661  and  _662
REMARK  274  A    between atoms: _661  and  _664
REMARK  275  A    between atoms: _667  and  _669
REMARK  276  A    between atoms: _669  and  _670
REMARK  277  A    between atoms: _669  and  _672
REMARK  278  A    between atoms: _672  and  _673
REMARK  279  A    between atoms: _676  and  _678
REMARK  280  A    between atoms: _678  and  _679
REMARK  281  A    between atoms: _678  and  _681
REMARK  282  A    between atoms: _681  and  _682
REMARK                            x       y       z     vdW  Elec       q    Type
REMARK                         _______ _______ _______ _____ _____    ______ ____
ROOT
ATOM      1  CA  LEU A   1       8.119   2.892  38.253  0.00  0.00    +0.133 C 
ENDROOT
BRANCH   1   2
ATOM      2  N   LEU A   1       7.018   2.796  39.207  0.00  0.00    -0.239 NA
ATOM      3  H   LEU A   1       6.868   3.559  39.898  0.00  0.00    +0.142 HD
ENDBRANCH   1   2
BRANCH   1   4
ATOM      4  C   LEU A   1       9.187   1.837  38.511  0.00  0.00    +0.224 C 
ATOM      5  O   LEU A   1       9.848   1.361  37.578  0.00  0.00    -0.287 OA
ENDBRANCH   1   4
BRANCH   1   6
ATOM      6  CB  LEU A   1       8.739   4.291  38.301  0.00  0.00    +0.025 C 
BRANCH   6   7
ATOM      7  CG  LEU A   1       7.785   5.368  37.782  0.00  0.00    +0.002 C 
ATOM      8  CD2 LEU A   1       8.482   6.720  37.769  0.00  0.00    +0.000 C 
ATOM      9  CD1 LEU A   1       7.331   4.987  36.377  0.00  0.00    +0.000 C 
ENDBRANCH   6   7
ENDBRANCH   1   6
TORSDOF 4
REMARK  Name = ../refined-set-2016/4i9h/4i9h_pocket.pdb
REMARK  282 active torsions:
REMARK  status: ('A' for Active; 'I' for Inactive)
REMARK    1  A    between atoms: _1  and  _3
REMARK    2  A    between atoms: _3  and  _4
REMARK    3  A    between atoms: _3  and  _6
REMARK    4  A    between atoms: _9  and  _11
REMARK    5  A    between atoms: _11  and  _12
REMARK    6  A    between atoms: _11  and  _14
REMARK    7  A    between atoms: _17  and  _19
REMARK    8  A    between atoms: _19  and  _20
REMARK    9  A    between atoms: _22  and  _24
REMARK   10  A    between atoms: _24  and  _25
REMARK   11  A    between atoms: _24  and  _27
REMARK   12  A    between atoms: _30  and  _32
REMARK   13  A    between atoms: _32  and  _33
REMARK   14  A    between atoms: _35  and  _37
REMARK   15  A    between atoms: _37  and  _38
REMARK   16  A    between atoms: _41  and  _43
REMARK   17  A    between atoms: _43  and  _44
REMARK   18  A    between atoms: _43  and  _46
REMARK   19  A    between atoms: _49  and  _51
REMARK   20  A    between atoms: _51  and  _52
REMARK   21  A    between atoms: _54  and  _56
REMARK   22  A    between atoms: _56  and  _57
REMARK   23  A    between atoms: _56  and  _59
REMARK   24  A    between atoms: _59  and  _60
REMARK   25  A    between atoms: _60  and  _61
REMARK   26  A    between atoms: _63  and  _65
REMARK   27  A    between atoms: _65  and  _66
REMARK   28  A    between atoms: _65  and  _68
REMARK   29  A    between atoms: _70  and  _72
REMARK   30  A    between atoms: _72  and  _73
REMARK   31  A    between atoms: _72  and  _75
REMARK   32  A    between atoms: _75  and  _76
REMARK   33  A    between atoms: _79  and  _81
REMARK   34  A    between atoms: _81  and  _82
REMARK   35  A    between atoms: _81  and  _84
REMARK   36  A    between atoms: _87  and  _89
REMARK   37  A    between atoms: _89  and  _90
REMARK   38  A    between atoms: _89  and  _92
REMARK   39  A    between atoms: _92  and  _93
REMARK   40  A    between atoms: _96  and  _98
REMARK   41  A    between atoms: _98  and  _99
REMARK   42  A    between atoms: _98  and  _101
REMARK   43  A    between atoms: _104  and  _106
REMARK   44  A    between atoms: _106  and  _107
REMARK   45  A    between atoms: _106  and  _109
REMARK   46  A    between atoms: _109  and  _110
REMARK   47  A    between atoms: _110  and  _111
REMARK   48  A    between atoms: _113  and  _115
REMARK   49  A    between atoms: _115  and  _116
REMARK   50  A    between atoms: _115  and  _118
REMARK   51  A    between atoms: _118  and  _119
REMARK   52  A    between atoms: _119  and  _120
REMARK   53  A    between atoms: _120  and  _121
REMARK   54  A    between atoms: _121  and  _122
REMARK   55  A    between atoms: _126  and  _128
REMARK   56  A    between atoms: _128  and  _129
REMARK   57  A    between atoms: _128  and  _131
REMARK   58  A    between atoms: _131  and  _132
REMARK   59  A    between atoms: _135  and  _137
REMARK   60  A    between atoms: _137  and  _138
REMARK   61  A    between atoms: _137  and  _140
REMARK   62  A    between atoms: _140  and  _141
REMARK   63  A    between atoms: _141  and  _142
REMARK   64  A    between atoms: _142  and  _143
REMARK   65  A    between atoms: _143  and  _144
REMARK   66  A    between atoms: _148  and  _150
REMARK   67  A    between atoms: _150  and  _151
REMARK   68  A    between atoms: _150  and  _153
REMARK   69  A    between atoms: _153  and  _154
REMARK   70  A    between atoms: _159  and  _160
REMARK   71  A    between atoms: _162  and  _164
REMARK   72  A    between atoms: _164  and  _165
REMARK   73  A    between atoms: _164  and  _167
REMARK   74  A    between atoms: _167  and  _168
REMARK   75  A    between atoms: _171  and  _173
REMARK   76  A    between atoms: _173  and  _174
REMARK   77  A    between atoms: _173  and  _176
REMARK   78  A    between atoms: _176  and  _177
REMARK   79  A    between atoms: _180  and  _182
REMARK   80  A    between atoms: _182  and  _183
REMARK   81  A    between atoms: _182  and  _185
REMARK   82  A    between atoms: _185  and  _186
REMARK   83  A    between atoms: _189  and  _191
REMARK   84  A    between atoms: _191  and  _192
REMARK   85  A    between atoms: _195  and  _197
REMARK   86  A    between atoms: _197  and  _198
REMARK   87  A    between atoms: _200  and  _202
REMARK   88  A    between atoms: _202  and  _203
REMARK   89  A    between atoms: _206  and  _208
REMARK   90  A    between atoms: _208  and  _209
REMARK   91  A    between atoms: _208  and  _211
REMARK   92  A    between atoms: _211  and  _212
REMARK   93  A    between atoms: _212  and  _213
REMARK   94  A    between atoms: _213  and  _214
REMARK   95  A    between atoms: _223  and  _225
REMARK   96  A    between atoms: _225  and  _226
REMARK   97  A    between atoms: _225  and  _228
REMARK   98  A    between atoms: _228  and  _229
REMARK   99  A    between atoms: _229  and  _230
REMARK  100  A    between atoms: _235  and  _237
REMARK  101  A    between atoms: _237  and  _238
REMARK  102  A    between atoms: _237  and  _240
REMARK  103  A    between atoms: _240  and  _241
REMARK  104  A    between atoms: _246  and  _248
REMARK  105  A    between atoms: _248  and  _249
REMARK  106  A    between atoms: _248  and  _251
REMARK  107  A    between atoms: _251  and  _252
REMARK  108  A    between atoms: _255  and  _257
REMARK  109  A    between atoms: _257  and  _258
REMARK  110  A    between atoms: _257  and  _260
REMARK  111  A    between atoms: _260  and  _261
REMARK  112  A    between atoms: _261  and  _262
REMARK  113  A    between atoms: _267  and  _269
REMARK  114  A    between atoms: _269  and  _270
REMARK  115  A    between atoms: _269  and  _272
REMARK  116  A    between atoms: _272  and  _273
REMARK  117  A    between atoms: _273  and  _274
REMARK  118  A    between atoms: _274  and  _275
REMARK  119  A    between atoms: _284  and  _286
REMARK  120  A    between atoms: _286  and  _287
REMARK  121  A    between atoms: _286  and  _289
REMARK  122  A    between atoms: _289  and  _290
REMARK  123  A    between atoms: _295  and  _297
REMARK  124  A    between atoms: _297  and  _298
REMARK  125  A    between atoms: _297  and  _300
REMARK  126  A    between atoms: _303  and  _305
REMARK  127  A    between atoms: _305  and  _306
REMARK  128  A    between atoms: _305  and  _308
REMARK  129  A    between atoms: _308  and  _309
REMARK  130  A    between atoms: _314  and  _316
REMARK  131  A    between atoms: _316  and  _317
REMARK  132  A    between atoms: _316  and  _319
REMARK  133  A    between atoms: _319  and  _320
REMARK  134  A    between atoms: _323  and  _325
REMARK  135  A    between atoms: _325  and  _326
REMARK  136  A    between atoms: _325  and  _328
REMARK  137  A    between atoms: _328  and  _329
REMARK  138  A    between atoms: _335  and  _337
REMARK  139  A    between atoms: _337  and  _338
REMARK  140  A    between atoms: _337  and  _340
REMARK  141  A    between atoms: _340  and  _341
REMARK  142  A    between atoms: _341  and  _342
REMARK  143  A    between atoms: _342  and  _343
REMARK  144  A    between atoms: _343  and  _344
REMARK  145  A    between atoms: _348  and  _350
REMARK  146  A    between atoms: _350  and  _351
REMARK  147  A    between atoms: _350  and  _353
REMARK  148  A    between atoms: _353  and  _354
REMARK  149  A    between atoms: _360  and  _362
REMARK  150  A    between atoms: _362  and  _363
REMARK  151  A    between atoms: _362  and  _365
REMARK  152  A    between atoms: _365  and  _366
REMARK  153  A    between atoms: _369  and  _371
REMARK  154  A    between atoms: _371  and  _372
REMARK  155  A    between atoms: _371  and  _374
REMARK  156  A    between atoms: _374  and  _375
REMARK  157  A    between atoms: _378  and  _380
REMARK  158  A    between atoms: _380  and  _381
REMARK  159  A    between atoms: _380  and  _383
REMARK  160  A    between atoms: _383  and  _384
REMARK  161  A    between atoms: _389  and  _391
REMARK  162  A    between atoms: _391  and  _392
REMARK  163  A    between atoms: _391  and  _394
REMARK  164  A    between atoms: _394  and  _395
REMARK  165  A    between atoms: _398  and  _400
REMARK  166  A    between atoms: _400  and  _401
REMARK  167  A    between atoms: _400  and  _403
REMARK  168  A    between atoms: _406  and  _408
REMARK  169  A    between atoms: _408  and  _409
REMARK  170  A    between atoms: _408  and  _411
REMARK  171  A    between atoms: _414  and  _416
REMARK  172  A    between atoms: _416  and  _417
REMARK  173  A    between atoms: _416  and  _419
REMARK  174  A    between atoms: _419  and  _420
REMARK  175  A    between atoms: _422  and  _424
REMARK  176  A    between atoms: _424  and  _425
REMARK  177  A    between atoms: _424  and  _427
REMARK  178  A    between atoms: _427  and  _428
REMARK  179  A    between atoms: _433  and  _435
REMARK  180  A    between atoms: _435  and  _436
REMARK  181  A    between atoms: _435  and  _438
REMARK  182  A    between atoms: _441  and  _443
REMARK  183  A    between atoms: _443  and  _444
REMARK  184  A    between atoms: _443  and  _446
REMARK  185  A    between atoms: _446  and  _447
REMARK  186  A    between atoms: _450  and  _452
REMARK  187  A    between atoms: _452  and  _453
REMARK  188  A    between atoms: _452  and  _455
REMARK  189  A    between atoms: _455  and  _456
REMARK  190  A    between atoms: _458  and  _460
REMARK  191  A    between atoms: _460  and  _461
REMARK  192  A    between atoms: _463  and  _465
REMARK  193  A    between atoms: _465  and  _466
REMARK  194  A    between atoms: _465  and  _468
REMARK  195  A    between atoms: _468  and  _469
REMARK  196  A    between atoms: _472  and  _474
REMARK  197  A    between atoms: _474  and  _475
REMARK  198  A    between atoms: _474  and  _477
REMARK  199  A    between atoms: _477  and  _478
REMARK  200  A    between atoms: _481  and  _483
REMARK  201  A    between atoms: _483  and  _484
REMARK  202  A    between atoms: _483  and  _486
REMARK  203  A    between atoms: _486  and  _487
REMARK  204  A    between atoms: _487  and  _488
REMARK  205  A    between atoms: _488  and  _489
REMARK  206  A    between atoms: _498  and  _500
REMARK  207  A    between atoms: _500  and  _501
REMARK  208  A    between atoms: _500  and  _503
REMARK  209  A    between atoms: _503  and  _504
REMARK  210  A    between atoms: _509  and  _511
REMARK  211  A    between atoms: _511  and  _512
REMARK  212  A    between atoms: _514  and  _516
REMARK  213  A    between atoms: _516  and  _517
REMARK  214  A    between atoms: _516  and  _519
REMARK  215  A    between atoms: _522  and  _524
REMARK  216  A    between atoms: _524  and  _525
REMARK  217  A    between atoms: _524  and  _527
REMARK  218  A    between atoms: _530  and  _532
REMARK  219  A    between atoms: _532  and  _533
REMARK  220  A    between atoms: _532  and  _535
REMARK  221  A    between atoms: _535  and  _536
REMARK  222  A    between atoms: _539  and  _541
REMARK  223  A    between atoms: _541  and  _542
REMARK  224  A    between atoms: _541  and  _544
REMARK  225  A    between atoms: _544  and  _545
REMARK  226  A    between atoms: _547  and  _549
REMARK  227  A    between atoms: _549  and  _550
REMARK  228  A    between atoms: _553  and  _555
REMARK  229  A    between atoms: _555  and  _556
REMARK  230  A    between atoms: _555  and  _558
REMARK  231  A    between atoms: _558  and  _559
REMARK  232  A    between atoms: _564  and  _565
REMARK  233  A    between atoms: _567  and  _569
REMARK  234  A    between atoms: _569  and  _570
REMARK  235  A    between atoms: _569  and  _572
REMARK  236  A    between atoms: _572  and  _573
REMARK  237  A    between atoms: _573  and  _574
REMARK  238  A    between atoms: _577  and  _579
REMARK  239  A    between atoms: _579  and  _580
REMARK  240  A    between atoms: _579  and  _582
REMARK  241  A    between atoms: _585  and  _587
REMARK  242  A    between atoms: _587  and  _588
REMARK  243  A    between atoms: _587  and  _590
REMARK  244  A    between atoms: _590  and  _591
REMARK  245  A    between atoms: _594  and  _596
REMARK  246  A    between atoms: _596  and  _597
REMARK  247  A    between atoms: _599  and  _601
REMARK  248  A    between atoms: _601  and  _602
REMARK  249  A    between atoms: _601  and  _604
REMARK  250  A    between atoms: _604  and  _605
REMARK  251  A    between atoms: _610  and  _611
REMARK  252  A    between atoms: _613  and  _615
REMARK  253  A    between atoms: _615  and  _616
REMARK  254  A    between atoms: _615  and  _618
REMARK  255  A    between atoms: _618  and  _619
REMARK  256  A    between atoms: _622  and  _624
REMARK  257  A    between atoms: _624  and  _625
REMARK  258  A    between atoms: _624  and  _627
REMARK  259  A    between atoms: _627  and  _628
REMARK  260  A    between atoms: _631  and  _633
REMARK  261  A    between atoms: _633  and  _634
REMARK  262  A    between atoms: _637  and  _639
REMARK  263  A    between atoms: _639  and  _640
REMARK  264  A    between atoms: _639  and  _642
REMARK  265  A    between atoms: _642  and  _643
REMARK  266  A    between atoms: _646  and  _648
REMARK  267  A    between atoms: _648  and  _649
REMARK  268  A    between atoms: _651  and  _653
REMARK  269  A    between atoms: _653  and  _654
REMARK  270  A    between atoms: _653  and  _656
REMARK  271  A    between atoms: _656  and  _657
REMARK  272  A    between atoms: _659  and  _661
REMARK  273  A    between atoms: _661  and  _662
REMARK  274  A    between atoms: _661  and  _664
REMARK  275  A    between atoms: _667  and  _669
REMARK  276  A    between atoms: _669  and  _670
REMARK  277  A    between atoms: _669  and  _672
REMARK  278  A    between atoms: _672  and  _673
REMARK  279  A    between atoms: _676  and  _678
REMARK  280  A    between atoms: _678  and  _679
REMARK  281  A    between atoms: _678  and  _681
REMARK  282  A    between atoms: _681  and  _682
REMARK                            x       y       z     vdW  Elec       q    Type
REMARK                         _______ _______ _______ _____ _____    ______ ____
ROOT
ATOM      1  C   SER A   1      12.698   4.080  48.269  0.00  0.00    +0.241 C 
ATOM      2  O   SER A   1      12.909   4.174  49.477  0.00  0.00    -0.274 OA
ATOM      3  N   GLY A   2      11.484   3.891  47.752  0.00  0.00    -0.296 N 
ATOM      4  H   GLY A   2      11.351   3.950  46.722  0.00  0.00    +0.150 HD
ENDROOT
BRANCH   1   5
ATOM      5  CA  SER A   1      13.854   4.169  47.275  0.00  0.00    +0.174 C 
BRANCH   5   6
ATOM      6  N   SER A   1      13.550   3.410  46.068  0.00  0.00    -0.236 NA
ATOM      7  H   SER A   1      13.578   3.884  45.143  0.00  0.00    +0.142 HD
ENDBRANCH   5   6
BRANCH   5   8
ATOM      8  CB  SER A   1      14.144   5.636  46.934  0.00  0.00    +0.163 C 
BRANCH   8   9
ATOM      9  OG  SER A   1      13.116   6.179  46.125  0.00  0.00    -0.380 OA
ATOM     10  H   SER A   1      12.254   6.129  46.610  0.00  0.00    +0.211 HD
ENDBRANCH   8   9
ENDBRANCH   5   8
ENDBRANCH   1   5
BRANCH   3  11
ATOM     11  CA  GLY A   2      10.343   3.604  48.606  0.00  0.00    +0.163 C 
BRANCH  11  12
ATOM     12  C   GLY A   2      10.214   4.530  49.807  0.00  0.00    +0.229 C 
ATOM     13  O   GLY A   2      10.292   5.750  49.663  0.00  0.00    -0.286 OA
ENDBRANCH  11  12
ENDBRANCH   3  11
TORSDOF 6
REMARK  Name = ../refined-set-2016/4i9h/4i9h_pocket.pdb
REMARK  282 active torsions:
REMARK  status: ('A' for Active; 'I' for Inactive)
REMARK    1  A    between atoms: _1  and  _3
REMARK    2  A    between atoms: _3  and  _4
REMARK    3  A    between atoms: _3  and  _6
REMARK    4  A    between atoms: _9  and  _11
REMARK    5  A    between atoms: _11  and  _12
REMARK    6  A    between atoms: _11  and  _14
REMARK    7  A    between atoms: _17  and  _19
REMARK    8  A    between atoms: _19  and  _20
REMARK    9  A    between atoms: _22  and  _24
REMARK   10  A    between atoms: _24  and  _25
REMARK   11  A    between atoms: _24  and  _27
REMARK   12  A    between atoms: _30  and  _32
REMARK   13  A    between atoms: _32  and  _33
REMARK   14  A    between atoms: _35  and  _37
REMARK   15  A    between atoms: _37  and  _38
REMARK   16  A    between atoms: _41  and  _43
REMARK   17  A    between atoms: _43  and  _44
REMARK   18  A    between atoms: _43  and  _46
REMARK   19  A    between atoms: _49  and  _51
REMARK   20  A    between atoms: _51  and  _52
REMARK   21  A    between atoms: _54  and  _56
REMARK   22  A    between atoms: _56  and  _57
REMARK   23  A    between atoms: _56  and  _59
REMARK   24  A    between atoms: _59  and  _60
REMARK   25  A    between atoms: _60  and  _61
REMARK   26  A    between atoms: _63  and  _65
REMARK   27  A    between atoms: _65  and  _66
REMARK   28  A    between atoms: _65  and  _68
REMARK   29  A    between atoms: _70  and  _72
REMARK   30  A    between atoms: _72  and  _73
REMARK   31  A    between atoms: _72  and  _75
REMARK   32  A    between atoms: _75  and  _76
REMARK   33  A    between atoms: _79  and  _81
REMARK   34  A    between atoms: _81  and  _82
REMARK   35  A    between atoms: _81  and  _84
REMARK   36  A    between atoms: _87  and  _89
REMARK   37  A    between atoms: _89  and  _90
REMARK   38  A    between atoms: _89  and  _92
REMARK   39  A    between atoms: _92  and  _93
REMARK   40  A    between atoms: _96  and  _98
REMARK   41  A    between atoms: _98  and  _99
REMARK   42  A    between atoms: _98  and  _101
REMARK   43  A    between atoms: _104  and  _106
REMARK   44  A    between atoms: _106  and  _107
REMARK   45  A    between atoms: _106  and  _109
REMARK   46  A    between atoms: _109  and  _110
REMARK   47  A    between atoms: _110  and  _111
REMARK   48  A    between atoms: _113  and  _115
REMARK   49  A    between atoms: _115  and  _116
REMARK   50  A    between atoms: _115  and  _118
REMARK   51  A    between atoms: _118  and  _119
REMARK   52  A    between atoms: _119  and  _120
REMARK   53  A    between atoms: _120  and  _121
REMARK   54  A    between atoms: _121  and  _122
REMARK   55  A    between atoms: _126  and  _128
REMARK   56  A    between atoms: _128  and  _129
REMARK   57  A    between atoms: _128  and  _131
REMARK   58  A    between atoms: _131  and  _132
REMARK   59  A    between atoms: _135  and  _137
REMARK   60  A    between atoms: _137  and  _138
REMARK   61  A    between atoms: _137  and  _140
REMARK   62  A    between atoms: _140  and  _141
REMARK   63  A    between atoms: _141  and  _142
REMARK   64  A    between atoms: _142  and  _143
REMARK   65  A    between atoms: _143  and  _144
REMARK   66  A    between atoms: _148  and  _150
REMARK   67  A    between atoms: _150  and  _151
REMARK   68  A    between atoms: _150  and  _153
REMARK   69  A    between atoms: _153  and  _154
REMARK   70  A    between atoms: _159  and  _160
REMARK   71  A    between atoms: _162  and  _164
REMARK   72  A    between atoms: _164  and  _165
REMARK   73  A    between atoms: _164  and  _167
REMARK   74  A    between atoms: _167  and  _168
REMARK   75  A    between atoms: _171  and  _173
REMARK   76  A    between atoms: _173  and  _174
REMARK   77  A    between atoms: _173  and  _176
REMARK   78  A    between atoms: _176  and  _177
REMARK   79  A    between atoms: _180  and  _182
REMARK   80  A    between atoms: _182  and  _183
REMARK   81  A    between atoms: _182  and  _185
REMARK   82  A    between atoms: _185  and  _186
REMARK   83  A    between atoms: _189  and  _191
REMARK   84  A    between atoms: _191  and  _192
REMARK   85  A    between atoms: _195  and  _197
REMARK   86  A    between atoms: _197  and  _198
REMARK   87  A    between atoms: _200  and  _202
REMARK   88  A    between atoms: _202  and  _203
REMARK   89  A    between atoms: _206  and  _208
REMARK   90  A    between atoms: _208  and  _209
REMARK   91  A    between atoms: _208  and  _211
REMARK   92  A    between atoms: _211  and  _212
REMARK   93  A    between atoms: _212  and  _213
REMARK   94  A    between atoms: _213  and  _214
REMARK   95  A    between atoms: _223  and  _225
REMARK   96  A    between atoms: _225  and  _226
REMARK   97  A    between atoms: _225  and  _228
REMARK   98  A    between atoms: _228  and  _229
REMARK   99  A    between atoms: _229  and  _230
REMARK  100  A    between atoms: _235  and  _237
REMARK  101  A    between atoms: _237  and  _238
REMARK  102  A    between atoms: _237  and  _240
REMARK  103  A    between atoms: _240  and  _241
REMARK  104  A    between atoms: _246  and  _248
REMARK  105  A    between atoms: _248  and  _249
REMARK  106  A    between atoms: _248  and  _251
REMARK  107  A    between atoms: _251  and  _252
REMARK  108  A    between atoms: _255  and  _257
REMARK  109  A    between atoms: _257  and  _258
REMARK  110  A    between atoms: _257  and  _260
REMARK  111  A    between atoms: _260  and  _261
REMARK  112  A    between atoms: _261  and  _262
REMARK  113  A    between atoms: _267  and  _269
REMARK  114  A    between atoms: _269  and  _270
REMARK  115  A    between atoms: _269  and  _272
REMARK  116  A    between atoms: _272  and  _273
REMARK  117  A    between atoms: _273  and  _274
REMARK  118  A    between atoms: _274  and  _275
REMARK  119  A    between atoms: _284  and  _286
REMARK  120  A    between atoms: _286  and  _287
REMARK  121  A    between atoms: _286  and  _289
REMARK  122  A    between atoms: _289  and  _290
REMARK  123  A    between atoms: _295  and  _297
REMARK  124  A    between atoms: _297  and  _298
REMARK  125  A    between atoms: _297  and  _300
REMARK  126  A    between atoms: _303  and  _305
REMARK  127  A    between atoms: _305  and  _306
REMARK  128  A    between atoms: _305  and  _308
REMARK  129  A    between atoms: _308  and  _309
REMARK  130  A    between atoms: _314  and  _316
REMARK  131  A    between atoms: _316  and  _317
REMARK  132  A    between atoms: _316  and  _319
REMARK  133  A    between atoms: _319  and  _320
REMARK  134  A    between atoms: _323  and  _325
REMARK  135  A    between atoms: _325  and  _326
REMARK  136  A    between atoms: _325  and  _328
REMARK  137  A    between atoms: _328  and  _329
REMARK  138  A    between atoms: _335  and  _337
REMARK  139  A    between atoms: _337  and  _338
REMARK  140  A    between atoms: _337  and  _340
REMARK  141  A    between atoms: _340  and  _341
REMARK  142  A    between atoms: _341  and  _342
REMARK  143  A    between atoms: _342  and  _343
REMARK  144  A    between atoms: _343  and  _344
REMARK  145  A    between atoms: _348  and  _350
REMARK  146  A    between atoms: _350  and  _351
REMARK  147  A    between atoms: _350  and  _353
REMARK  148  A    between atoms: _353  and  _354
REMARK  149  A    between atoms: _360  and  _362
REMARK  150  A    between atoms: _362  and  _363
REMARK  151  A    between atoms: _362  and  _365
REMARK  152  A    between atoms: _365  and  _366
REMARK  153  A    between atoms: _369  and  _371
REMARK  154  A    between atoms: _371  and  _372
REMARK  155  A    between atoms: _371  and  _374
REMARK  156  A    between atoms: _374  and  _375
REMARK  157  A    between atoms: _378  and  _380
REMARK  158  A    between atoms: _380  and  _381
REMARK  159  A    between atoms: _380  and  _383
REMARK  160  A    between atoms: _383  and  _384
REMARK  161  A    between atoms: _389  and  _391
REMARK  162  A    between atoms: _391  and  _392
REMARK  163  A    between atoms: _391  and  _394
REMARK  164  A    between atoms: _394  and  _395
REMARK  165  A    between atoms: _398  and  _400
REMARK  166  A    between atoms: _400  and  _401
REMARK  167  A    between atoms: _400  and  _403
REMARK  168  A    between atoms: _406  and  _408
REMARK  169  A    between atoms: _408  and  _409
REMARK  170  A    between atoms: _408  and  _411
REMARK  171  A    between atoms: _414  and  _416
REMARK  172  A    between atoms: _416  and  _417
REMARK  173  A    between atoms: _416  and  _419
REMARK  174  A    between atoms: _419  and  _420
REMARK  175  A    between atoms: _422  and  _424
REMARK  176  A    between atoms: _424  and  _425
REMARK  177  A    between atoms: _424  and  _427
REMARK  178  A    between atoms: _427  and  _428
REMARK  179  A    between atoms: _433  and  _435
REMARK  180  A    between atoms: _435  and  _436
REMARK  181  A    between atoms: _435  and  _438
REMARK  182  A    between atoms: _441  and  _443
REMARK  183  A    between atoms: _443  and  _444
REMARK  184  A    between atoms: _443  and  _446
REMARK  185  A    between atoms: _446  and  _447
REMARK  186  A    between atoms: _450  and  _452
REMARK  187  A    between atoms: _452  and  _453
REMARK  188  A    between atoms: _452  and  _455
REMARK  189  A    between atoms: _455  and  _456
REMARK  190  A    between atoms: _458  and  _460
REMARK  191  A    between atoms: _460  and  _461
REMARK  192  A    between atoms: _463  and  _465
REMARK  193  A    between atoms: _465  and  _466
REMARK  194  A    between atoms: _465  and  _468
REMARK  195  A    between atoms: _468  and  _469
REMARK  196  A    between atoms: _472  and  _474
REMARK  197  A    between atoms: _474  and  _475
REMARK  198  A    between atoms: _474  and  _477
REMARK  199  A    between atoms: _477  and  _478
REMARK  200  A    between atoms: _481  and  _483
REMARK  201  A    between atoms: _483  and  _484
REMARK  202  A    between atoms: _483  and  _486
REMARK  203  A    between atoms: _486  and  _487
REMARK  204  A    between atoms: _487  and  _488
REMARK  205  A    between atoms: _488  and  _489
REMARK  206  A    between atoms: _498  and  _500
REMARK  207  A    between atoms: _500  and  _501
REMARK  208  A    between atoms: _500  and  _503
REMARK  209  A    between atoms: _503  and  _504
REMARK  210  A    between atoms: _509  and  _511
REMARK  211  A    between atoms: _511  and  _512
REMARK  212  A    between atoms: _514  and  _516
REMARK  213  A    between atoms: _516  and  _517
REMARK  214  A    between atoms: _516  and  _519
REMARK  215  A    between atoms: _522  and  _524
REMARK  216  A    between atoms: _524  and  _525
REMARK  217  A    between atoms: _524  and  _527
REMARK  218  A    between atoms: _530  and  _532
REMARK  219  A    between atoms: _532  and  _533
REMARK  220  A    between atoms: _532  and  _535
REMARK  221  A    between atoms: _535  and  _536
REMARK  222  A    between atoms: _539  and  _541
REMARK  223  A    between atoms: _541  and  _542
REMARK  224  A    between atoms: _541  and  _544
REMARK  225  A    between atoms: _544  and  _545
REMARK  226  A    between atoms: _547  and  _549
REMARK  227  A    between atoms: _549  and  _550
REMARK  228  A    between atoms: _553  and  _555
REMARK  229  A    between atoms: _555  and  _556
REMARK  230  A    between atoms: _555  and  _558
REMARK  231  A    between atoms: _558  and  _559
REMARK  232  A    between atoms: _564  and  _565
REMARK  233  A    between atoms: _567  and  _569
REMARK  234  A    between atoms: _569  and  _570
REMARK  235  A    between atoms: _569  and  _572
REMARK  236  A    between atoms: _572  and  _573
REMARK  237  A    between atoms: _573  and  _574
REMARK  238  A    between atoms: _577  and  _579
REMARK  239  A    between atoms: _579  and  _580
REMARK  240  A    between atoms: _579  and  _582
REMARK  241  A    between atoms: _585  and  _587
REMARK  242  A    between atoms: _587  and  _588
REMARK  243  A    between atoms: _587  and  _590
REMARK  244  A    between atoms: _590  and  _591
REMARK  245  A    between atoms: _594  and  _596
REMARK  246  A    between atoms: _596  and  _597
REMARK  247  A    between atoms: _599  and  _601
REMARK  248  A    between atoms: _601  and  _602
REMARK  249  A    between atoms: _601  and  _604
REMARK  250  A    between atoms: _604  and  _605
REMARK  251  A    between atoms: _610  and  _611
REMARK  252  A    between atoms: _613  and  _615
REMARK  253  A    between atoms: _615  and  _616
REMARK  254  A    between atoms: _615  and  _618
REMARK  255  A    between atoms: _618  and  _619
REMARK  256  A    between atoms: _622  and  _624
REMARK  257  A    between atoms: _624  and  _625
REMARK  258  A    between atoms: _624  and  _627
REMARK  259  A    between atoms: _627  and  _628
REMARK  260  A    between atoms: _631  and  _633
REMARK  261  A    between atoms: _633  and  _634
REMARK  262  A    between atoms: _637  and  _639
REMARK  263  A    between atoms: _639  and  _640
REMARK  264  A    between atoms: _639  and  _642
REMARK  265  A    between atoms: _642  and  _643
REMARK  266  A    between atoms: _646  and  _648
REMARK  267  A    between atoms: _648  and  _649
REMARK  268  A    between atoms: _651  and  _653
REMARK  269  A    between atoms: _653  and  _654
REMARK  270  A    between atoms: _653  and  _656
REMARK  271  A    between atoms: _656  and  _657
REMARK  272  A    between atoms: _659  and  _661
REMARK  273  A    between atoms: _661  and  _662
REMARK  274  A    between atoms: _661  and  _664
REMARK  275  A    between atoms: _667  and  _669
REMARK  276  A    between atoms: _669  and  _670
REMARK  277  A    between atoms: _669  and  _672
REMARK  278  A    between atoms: _672  and  _673
REMARK  279  A    between atoms: _676  and  _678
REMARK  280  A    between atoms: _678  and  _679
REMARK  281  A    between atoms: _678  and  _681
REMARK  282  A    between atoms: _681  and  _682
REMARK                            x       y       z     vdW  Elec       q    Type
REMARK                         _______ _______ _______ _____ _____    ______ ____
ROOT
ATOM      1  C   LEU A   1      12.244   9.185  54.247  0.00  0.00    +0.238 C 
ATOM      2  O   LEU A   1      12.505   9.844  55.252  0.00  0.00    -0.274 OA
ATOM      3  N   ASP A   2      11.019   8.737  53.989  0.00  0.00    -0.298 N 
ATOM      4  H   ASP A   2      10.840   8.158  53.143  0.00  0.00    +0.150 HD
ENDROOT
BRANCH   1   5
ATOM      5  CA  LEU A   1      13.330   8.853  53.236  0.00  0.00    +0.145 C 
BRANCH   5   6
ATOM      6  N   LEU A   1      13.246   7.459  52.801  0.00  0.00    -0.238 NA
ATOM      7  H   LEU A   1      12.960   7.247  51.824  0.00  0.00    +0.142 HD
ENDBRANCH   5   6
BRANCH   5   8
ATOM      8  CB  LEU A   1      13.213   9.807  52.038  0.00  0.00    +0.026 C 
BRANCH   8   9
ATOM      9  CG  LEU A   1      13.079  11.295  52.404  0.00  0.00    +0.002 C 
ATOM     10  CD2 LEU A   1      14.245  11.708  53.297  0.00  0.00    +0.000 C 
ATOM     11  CD1 LEU A   1      13.038  12.160  51.146  0.00  0.00    +0.000 C 
ENDBRANCH   8   9
ENDBRANCH   5   8
ENDBRANCH   1   5
BRANCH   3  12
ATOM     12  CA  ASP A   2       9.926   9.063  54.901  0.00  0.00    +0.148 C 
BRANCH  12  13
ATOM     13  C   ASP A   2      10.189   8.473  56.282  0.00  0.00    +0.227 C 
ATOM     14  O   ASP A   2       9.799   9.045  57.297  0.00  0.00    -0.286 OA
ENDBRANCH  12  13
BRANCH  12  15
ATOM     15  CB  ASP A   2       8.587   8.567  54.342  0.00  0.00    +0.142 C 
BRANCH  15  16
ATOM     16  CG  ASP A   2       8.060   9.465  53.231  0.00  0.00    +0.367 C 
ATOM     17  OD2 ASP A   2       8.644  10.554  53.042  0.00  0.00    -0.246 OA
ATOM     18  OD1 ASP A   2       7.077   9.092  52.551  0.00  0.00    -0.246 OA
ENDBRANCH  15  16
ENDBRANCH  12  15
ENDBRANCH   3  12
TORSDOF 8
REMARK  Name = ../refined-set-2016/4i9h/4i9h_pocket.pdb
REMARK  282 active torsions:
REMARK  status: ('A' for Active; 'I' for Inactive)
REMARK    1  A    between atoms: _1  and  _3
REMARK    2  A    between atoms: _3  and  _4
REMARK    3  A    between atoms: _3  and  _6
REMARK    4  A    between atoms: _9  and  _11
REMARK    5  A    between atoms: _11  and  _12
REMARK    6  A    between atoms: _11  and  _14
REMARK    7  A    between atoms: _17  and  _19
REMARK    8  A    between atoms: _19  and  _20
REMARK    9  A    between atoms: _22  and  _24
REMARK   10  A    between atoms: _24  and  _25
REMARK   11  A    between atoms: _24  and  _27
REMARK   12  A    between atoms: _30  and  _32
REMARK   13  A    between atoms: _32  and  _33
REMARK   14  A    between atoms: _35  and  _37
REMARK   15  A    between atoms: _37  and  _38
REMARK   16  A    between atoms: _41  and  _43
REMARK   17  A    between atoms: _43  and  _44
REMARK   18  A    between atoms: _43  and  _46
REMARK   19  A    between atoms: _49  and  _51
REMARK   20  A    between atoms: _51  and  _52
REMARK   21  A    between atoms: _54  and  _56
REMARK   22  A    between atoms: _56  and  _57
REMARK   23  A    between atoms: _56  and  _59
REMARK   24  A    between atoms: _59  and  _60
REMARK   25  A    between atoms: _60  and  _61
REMARK   26  A    between atoms: _63  and  _65
REMARK   27  A    between atoms: _65  and  _66
REMARK   28  A    between atoms: _65  and  _68
REMARK   29  A    between atoms: _70  and  _72
REMARK   30  A    between atoms: _72  and  _73
REMARK   31  A    between atoms: _72  and  _75
REMARK   32  A    between atoms: _75  and  _76
REMARK   33  A    between atoms: _79  and  _81
REMARK   34  A    between atoms: _81  and  _82
REMARK   35  A    between atoms: _81  and  _84
REMARK   36  A    between atoms: _87  and  _89
REMARK   37  A    between atoms: _89  and  _90
REMARK   38  A    between atoms: _89  and  _92
REMARK   39  A    between atoms: _92  and  _93
REMARK   40  A    between atoms: _96  and  _98
REMARK   41  A    between atoms: _98  and  _99
REMARK   42  A    between atoms: _98  and  _101
REMARK   43  A    between atoms: _104  and  _106
REMARK   44  A    between atoms: _106  and  _107
REMARK   45  A    between atoms: _106  and  _109
REMARK   46  A    between atoms: _109  and  _110
REMARK   47  A    between atoms: _110  and  _111
REMARK   48  A    between atoms: _113  and  _115
REMARK   49  A    between atoms: _115  and  _116
REMARK   50  A    between atoms: _115  and  _118
REMARK   51  A    between atoms: _118  and  _119
REMARK   52  A    between atoms: _119  and  _120
REMARK   53  A    between atoms: _120  and  _121
REMARK   54  A    between atoms: _121  and  _122
REMARK   55  A    between atoms: _126  and  _128
REMARK   56  A    between atoms: _128  and  _129
REMARK   57  A    between atoms: _128  and  _131
REMARK   58  A    between atoms: _131  and  _132
REMARK   59  A    between atoms: _135  and  _137
REMARK   60  A    between atoms: _137  and  _138
REMARK   61  A    between atoms: _137  and  _140
REMARK   62  A    between atoms: _140  and  _141
REMARK   63  A    between atoms: _141  and  _142
REMARK   64  A    between atoms: _142  and  _143
REMARK   65  A    between atoms: _143  and  _144
REMARK   66  A    between atoms: _148  and  _150
REMARK   67  A    between atoms: _150  and  _151
REMARK   68  A    between atoms: _150  and  _153
REMARK   69  A    between atoms: _153  and  _154
REMARK   70  A    between atoms: _159  and  _160
REMARK   71  A    between atoms: _162  and  _164
REMARK   72  A    between atoms: _164  and  _165
REMARK   73  A    between atoms: _164  and  _167
REMARK   74  A    between atoms: _167  and  _168
REMARK   75  A    between atoms: _171  and  _173
REMARK   76  A    between atoms: _173  and  _174
REMARK   77  A    between atoms: _173  and  _176
REMARK   78  A    between atoms: _176  and  _177
REMARK   79  A    between atoms: _180  and  _182
REMARK   80  A    between atoms: _182  and  _183
REMARK   81  A    between atoms: _182  and  _185
REMARK   82  A    between atoms: _185  and  _186
REMARK   83  A    between atoms: _189  and  _191
REMARK   84  A    between atoms: _191  and  _192
REMARK   85  A    between atoms: _195  and  _197
REMARK   86  A    between atoms: _197  and  _198
REMARK   87  A    between atoms: _200  and  _202
REMARK   88  A    between atoms: _202  and  _203
REMARK   89  A    between atoms: _206  and  _208
REMARK   90  A    between atoms: _208  and  _209
REMARK   91  A    between atoms: _208  and  _211
REMARK   92  A    between atoms: _211  and  _212
REMARK   93  A    between atoms: _212  and  _213
REMARK   94  A    between atoms: _213  and  _214
REMARK   95  A    between atoms: _223  and  _225
REMARK   96  A    between atoms: _225  and  _226
REMARK   97  A    between atoms: _225  and  _228
REMARK   98  A    between atoms: _228  and  _229
REMARK   99  A    between atoms: _229  and  _230
REMARK  100  A    between atoms: _235  and  _237
REMARK  101  A    between atoms: _237  and  _238
REMARK  102  A    between atoms: _237  and  _240
REMARK  103  A    between atoms: _240  and  _241
REMARK  104  A    between atoms: _246  and  _248
REMARK  105  A    between atoms: _248  and  _249
REMARK  106  A    between atoms: _248  and  _251
REMARK  107  A    between atoms: _251  and  _252
REMARK  108  A    between atoms: _255  and  _257
REMARK  109  A    between atoms: _257  and  _258
REMARK  110  A    between atoms: _257  and  _260
REMARK  111  A    between atoms: _260  and  _261
REMARK  112  A    between atoms: _261  and  _262
REMARK  113  A    between atoms: _267  and  _269
REMARK  114  A    between atoms: _269  and  _270
REMARK  115  A    between atoms: _269  and  _272
REMARK  116  A    between atoms: _272  and  _273
REMARK  117  A    between atoms: _273  and  _274
REMARK  118  A    between atoms: _274  and  _275
REMARK  119  A    between atoms: _284  and  _286
REMARK  120  A    between atoms: _286  and  _287
REMARK  121  A    between atoms: _286  and  _289
REMARK  122  A    between atoms: _289  and  _290
REMARK  123  A    between atoms: _295  and  _297
REMARK  124  A    between atoms: _297  and  _298
REMARK  125  A    between atoms: _297  and  _300
REMARK  126  A    between atoms: _303  and  _305
REMARK  127  A    between atoms: _305  and  _306
REMARK  128  A    between atoms: _305  and  _308
REMARK  129  A    between atoms: _308  and  _309
REMARK  130  A    between atoms: _314  and  _316
REMARK  131  A    between atoms: _316  and  _317
REMARK  132  A    between atoms: _316  and  _319
REMARK  133  A    between atoms: _319  and  _320
REMARK  134  A    between atoms: _323  and  _325
REMARK  135  A    between atoms: _325  and  _326
REMARK  136  A    between atoms: _325  and  _328
REMARK  137  A    between atoms: _328  and  _329
REMARK  138  A    between atoms: _335  and  _337
REMARK  139  A    between atoms: _337  and  _338
REMARK  140  A    between atoms: _337  and  _340
REMARK  141  A    between atoms: _340  and  _341
REMARK  142  A    between atoms: _341  and  _342
REMARK  143  A    between atoms: _342  and  _343
REMARK  144  A    between atoms: _343  and  _344
REMARK  145  A    between atoms: _348  and  _350
REMARK  146  A    between atoms: _350  and  _351
REMARK  147  A    between atoms: _350  and  _353
REMARK  148  A    between atoms: _353  and  _354
REMARK  149  A    between atoms: _360  and  _362
REMARK  150  A    between atoms: _362  and  _363
REMARK  151  A    between atoms: _362  and  _365
REMARK  152  A    between atoms: _365  and  _366
REMARK  153  A    between atoms: _369  and  _371
REMARK  154  A    between atoms: _371  and  _372
REMARK  155  A    between atoms: _371  and  _374
REMARK  156  A    between atoms: _374  and  _375
REMARK  157  A    between atoms: _378  and  _380
REMARK  158  A    between atoms: _380  and  _381
REMARK  159  A    between atoms: _380  and  _383
REMARK  160  A    between atoms: _383  and  _384
REMARK  161  A    between atoms: _389  and  _391
REMARK  162  A    between atoms: _391  and  _392
REMARK  163  A    between atoms: _391  and  _394
REMARK  164  A    between atoms: _394  and  _395
REMARK  165  A    between atoms: _398  and  _400
REMARK  166  A    between atoms: _400  and  _401
REMARK  167  A    between atoms: _400  and  _403
REMARK  168  A    between atoms: _406  and  _408
REMARK  169  A    between atoms: _408  and  _409
REMARK  170  A    between atoms: _408  and  _411
REMARK  171  A    between atoms: _414  and  _416
REMARK  172  A    between atoms: _416  and  _417
REMARK  173  A    between atoms: _416  and  _419
REMARK  174  A    between atoms: _419  and  _420
REMARK  175  A    between atoms: _422  and  _424
REMARK  176  A    between atoms: _424  and  _425
REMARK  177  A    between atoms: _424  and  _427
REMARK  178  A    between atoms: _427  and  _428
REMARK  179  A    between atoms: _433  and  _435
REMARK  180  A    between atoms: _435  and  _436
REMARK  181  A    between atoms: _435  and  _438
REMARK  182  A    between atoms: _441  and  _443
REMARK  183  A    between atoms: _443  and  _444
REMARK  184  A    between atoms: _443  and  _446
REMARK  185  A    between atoms: _446  and  _447
REMARK  186  A    between atoms: _450  and  _452
REMARK  187  A    between atoms: _452  and  _453
REMARK  188  A    between atoms: _452  and  _455
REMARK  189  A    between atoms: _455  and  _456
REMARK  190  A    between atoms: _458  and  _460
REMARK  191  A    between atoms: _460  and  _461
REMARK  192  A    between atoms: _463  and  _465
REMARK  193  A    between atoms: _465  and  _466
REMARK  194  A    between atoms: _465  and  _468
REMARK  195  A    between atoms: _468  and  _469
REMARK  196  A    between atoms: _472  and  _474
REMARK  197  A    between atoms: _474  and  _475
REMARK  198  A    between atoms: _474  and  _477
REMARK  199  A    between atoms: _477  and  _478
REMARK  200  A    between atoms: _481  and  _483
REMARK  201  A    between atoms: _483  and  _484
REMARK  202  A    between atoms: _483  and  _486
REMARK  203  A    between atoms: _486  and  _487
REMARK  204  A    between atoms: _487  and  _488
REMARK  205  A    between atoms: _488  and  _489
REMARK  206  A    between atoms: _498  and  _500
REMARK  207  A    between atoms: _500  and  _501
REMARK  208  A    between atoms: _500  and  _503
REMARK  209  A    between atoms: _503  and  _504
REMARK  210  A    between atoms: _509  and  _511
REMARK  211  A    between atoms: _511  and  _512
REMARK  212  A    between atoms: _514  and  _516
REMARK  213  A    between atoms: _516  and  _517
REMARK  214  A    between atoms: _516  and  _519
REMARK  215  A    between atoms: _522  and  _524
REMARK  216  A    between atoms: _524  and  _525
REMARK  217  A    between atoms: _524  and  _527
REMARK  218  A    between atoms: _530  and  _532
REMARK  219  A    between atoms: _532  and  _533
REMARK  220  A    between atoms: _532  and  _535
REMARK  221  A    between atoms: _535  and  _536
REMARK  222  A    between atoms: _539  and  _541
REMARK  223  A    between atoms: _541  and  _542
REMARK  224  A    between atoms: _541  and  _544
REMARK  225  A    between atoms: _544  and  _545
REMARK  226  A    between atoms: _547  and  _549
REMARK  227  A    between atoms: _549  and  _550
REMARK  228  A    between atoms: _553  and  _555
REMARK  229  A    between atoms: _555  and  _556
REMARK  230  A    between atoms: _555  and  _558
REMARK  231  A    between atoms: _558  and  _559
REMARK  232  A    between atoms: _564  and  _565
REMARK  233  A    between atoms: _567  and  _569
REMARK  234  A    between atoms: _569  and  _570
REMARK  235  A    between atoms: _569  and  _572
REMARK  236  A    between atoms: _572  and  _573
REMARK  237  A    between atoms: _573  and  _574
REMARK  238  A    between atoms: _577  and  _579
REMARK  239  A    between atoms: _579  and  _580
REMARK  240  A    between atoms: _579  and  _582
REMARK  241  A    between atoms: _585  and  _587
REMARK  242  A    between atoms: _587  and  _588
REMARK  243  A    between atoms: _587  and  _590
REMARK  244  A    between atoms: _590  and  _591
REMARK  245  A    between atoms: _594  and  _596
REMARK  246  A    between atoms: _596  and  _597
REMARK  247  A    between atoms: _599  and  _601
REMARK  248  A    between atoms: _601  and  _602
REMARK  249  A    between atoms: _601  and  _604
REMARK  250  A    between atoms: _604  and  _605
REMARK  251  A    between atoms: _610  and  _611
REMARK  252  A    between atoms: _613  and  _615
REMARK  253  A    between atoms: _615  and  _616
REMARK  254  A    between atoms: _615  and  _618
REMARK  255  A    between atoms: _618  and  _619
REMARK  256  A    between atoms: _622  and  _624
REMARK  257  A    between atoms: _624  and  _625
REMARK  258  A    between atoms: _624  and  _627
REMARK  259  A    between atoms: _627  and  _628
REMARK  260  A    between atoms: _631  and  _633
REMARK  261  A    between atoms: _633  and  _634
REMARK  262  A    between atoms: _637  and  _639
REMARK  263  A    between atoms: _639  and  _640
REMARK  264  A    between atoms: _639  and  _642
REMARK  265  A    between atoms: _642  and  _643
REMARK  266  A    between atoms: _646  and  _648
REMARK  267  A    between atoms: _648  and  _649
REMARK  268  A    between atoms: _651  and  _653
REMARK  269  A    between atoms: _653  and  _654
REMARK  270  A    between atoms: _653  and  _656
REMARK  271  A    between atoms: _656  and  _657
REMARK  272  A    between atoms: _659  and  _661
REMARK  273  A    between atoms: _661  and  _662
REMARK  274  A    between atoms: _661  and  _664
REMARK  275  A    between atoms: _667  and  _669
REMARK  276  A    between atoms: _669  and  _670
REMARK  277  A    between atoms: _669  and  _672
REMARK  278  A    between atoms: _672  and  _673
REMARK  279  A    between atoms: _676  and  _678
REMARK  280  A    between atoms: _678  and  _679
REMARK  281  A    between atoms: _678  and  _681
REMARK  282  A    between atoms: _681  and  _682
REMARK                            x       y       z     vdW  Elec       q    Type
REMARK                         _______ _______ _______ _____ _____    ______ ____
ROOT
ATOM      1  NE  ARG A   1      10.808  14.370  53.998  0.00  0.00    -0.265 N 
ATOM      2  HE  ARG A   1      11.309  15.219  54.329  0.00  0.00    +0.259 HD
ATOM      3  CZ  ARG A   1      10.635  14.224  52.685  0.00  0.00    +0.342 C 
ATOM      4  NH2 ARG A   1      10.007  13.159  52.203  0.00  0.00    -0.292 N 
ATOM      5 HH21 ARG A   1       9.646  12.431  52.851  0.00  0.00    +0.255 HD
ATOM      6 HH22 ARG A   1       9.876  13.053  51.177  0.00  0.00    +0.255 HD
ATOM      7  NH1 ARG A   1      11.096  15.142  51.846  0.00  0.00    -0.292 N 
ATOM      8 HH11 ARG A   1      11.594  15.978  52.213  0.00  0.00    +0.255 HD
ATOM      9 HH12 ARG A   1      10.960  15.026  50.822  0.00  0.00    +0.255 HD
ENDROOT
BRANCH   1  10
ATOM     10  CD  ARG A   1      10.343  13.421  55.002  0.00  0.00    +0.174 C 
BRANCH  10  11
ATOM     11  CG  ARG A   1      11.394  13.168  56.099  0.00  0.00    +0.045 C 
BRANCH  11  12
ATOM     12  CB  ARG A   1      10.838  12.268  57.205  0.00  0.00    +0.029 C 
BRANCH  12  13
ATOM     13  CA  ARG A   1      11.848  11.876  58.285  0.00  0.00    +0.133 C 
BRANCH  13  14
ATOM     14  N   ARG A   1      12.608  10.709  57.858  0.00  0.00    -0.239 NA
ATOM     15  H   ARG A   1      12.345  10.222  56.977  0.00  0.00    +0.142 HD
ENDBRANCH  13  14
BRANCH  13  16
ATOM     16  C   ARG A   1      11.117  11.583  59.595  0.00  0.00    +0.224 C 
ATOM     17  O   ARG A   1      11.090  12.414  60.507  0.00  0.00    -0.287 OA
ENDBRANCH  13  16
ENDBRANCH  12  13
ENDBRANCH  11  12
ENDBRANCH  10  11
ENDBRANCH   1  10
TORSDOF 6
REMARK  Name = ../refined-set-2016/4i9h/4i9h_pocket.pdb
REMARK  282 active torsions:
REMARK  status: ('A' for Active; 'I' for Inactive)
REMARK    1  A    between atoms: _1  and  _3
REMARK    2  A    between atoms: _3  and  _4
REMARK    3  A    between atoms: _3  and  _6
REMARK    4  A    between atoms: _9  and  _11
REMARK    5  A    between atoms: _11  and  _12
REMARK    6  A    between atoms: _11  and  _14
REMARK    7  A    between atoms: _17  and  _19
REMARK    8  A    between atoms: _19  and  _20
REMARK    9  A    between atoms: _22  and  _24
REMARK   10  A    between atoms: _24  and  _25
REMARK   11  A    between atoms: _24  and  _27
REMARK   12  A    between atoms: _30  and  _32
REMARK   13  A    between atoms: _32  and  _33
REMARK   14  A    between atoms: _35  and  _37
REMARK   15  A    between atoms: _37  and  _38
REMARK   16  A    between atoms: _41  and  _43
REMARK   17  A    between atoms: _43  and  _44
REMARK   18  A    between atoms: _43  and  _46
REMARK   19  A    between atoms: _49  and  _51
REMARK   20  A    between atoms: _51  and  _52
REMARK   21  A    between atoms: _54  and  _56
REMARK   22  A    between atoms: _56  and  _57
REMARK   23  A    between atoms: _56  and  _59
REMARK   24  A    between atoms: _59  and  _60
REMARK   25  A    between atoms: _60  and  _61
REMARK   26  A    between atoms: _63  and  _65
REMARK   27  A    between atoms: _65  and  _66
REMARK   28  A    between atoms: _65  and  _68
REMARK   29  A    between atoms: _70  and  _72
REMARK   30  A    between atoms: _72  and  _73
REMARK   31  A    between atoms: _72  and  _75
REMARK   32  A    between atoms: _75  and  _76
REMARK   33  A    between atoms: _79  and  _81
REMARK   34  A    between atoms: _81  and  _82
REMARK   35  A    between atoms: _81  and  _84
REMARK   36  A    between atoms: _87  and  _89
REMARK   37  A    between atoms: _89  and  _90
REMARK   38  A    between atoms: _89  and  _92
REMARK   39  A    between atoms: _92  and  _93
REMARK   40  A    between atoms: _96  and  _98
REMARK   41  A    between atoms: _98  and  _99
REMARK   42  A    between atoms: _98  and  _101
REMARK   43  A    between atoms: _104  and  _106
REMARK   44  A    between atoms: _106  and  _107
REMARK   45  A    between atoms: _106  and  _109
REMARK   46  A    between atoms: _109  and  _110
REMARK   47  A    between atoms: _110  and  _111
REMARK   48  A    between atoms: _113  and  _115
REMARK   49  A    between atoms: _115  and  _116
REMARK   50  A    between atoms: _115  and  _118
REMARK   51  A    between atoms: _118  and  _119
REMARK   52  A    between atoms: _119  and  _120
REMARK   53  A    between atoms: _120  and  _121
REMARK   54  A    between atoms: _121  and  _122
REMARK   55  A    between atoms: _126  and  _128
REMARK   56  A    between atoms: _128  and  _129
REMARK   57  A    between atoms: _128  and  _131
REMARK   58  A    between atoms: _131  and  _132
REMARK   59  A    between atoms: _135  and  _137
REMARK   60  A    between atoms: _137  and  _138
REMARK   61  A    between atoms: _137  and  _140
REMARK   62  A    between atoms: _140  and  _141
REMARK   63  A    between atoms: _141  and  _142
REMARK   64  A    between atoms: _142  and  _143
REMARK   65  A    between atoms: _143  and  _144
REMARK   66  A    between atoms: _148  and  _150
REMARK   67  A    between atoms: _150  and  _151
REMARK   68  A    between atoms: _150  and  _153
REMARK   69  A    between atoms: _153  and  _154
REMARK   70  A    between atoms: _159  and  _160
REMARK   71  A    between atoms: _162  and  _164
REMARK   72  A    between atoms: _164  and  _165
REMARK   73  A    between atoms: _164  and  _167
REMARK   74  A    between atoms: _167  and  _168
REMARK   75  A    between atoms: _171  and  _173
REMARK   76  A    between atoms: _173  and  _174
REMARK   77  A    between atoms: _173  and  _176
REMARK   78  A    between atoms: _176  and  _177
REMARK   79  A    between atoms: _180  and  _182
REMARK   80  A    between atoms: _182  and  _183
REMARK   81  A    between atoms: _182  and  _185
REMARK   82  A    between atoms: _185  and  _186
REMARK   83  A    between atoms: _189  and  _191
REMARK   84  A    between atoms: _191  and  _192
REMARK   85  A    between atoms: _195  and  _197
REMARK   86  A    between atoms: _197  and  _198
REMARK   87  A    between atoms: _200  and  _202
REMARK   88  A    between atoms: _202  and  _203
REMARK   89  A    between atoms: _206  and  _208
REMARK   90  A    between atoms: _208  and  _209
REMARK   91  A    between atoms: _208  and  _211
REMARK   92  A    between atoms: _211  and  _212
REMARK   93  A    between atoms: _212  and  _213
REMARK   94  A    between atoms: _213  and  _214
REMARK   95  A    between atoms: _223  and  _225
REMARK   96  A    between atoms: _225  and  _226
REMARK   97  A    between atoms: _225  and  _228
REMARK   98  A    between atoms: _228  and  _229
REMARK   99  A    between atoms: _229  and  _230
REMARK  100  A    between atoms: _235  and  _237
REMARK  101  A    between atoms: _237  and  _238
REMARK  102  A    between atoms: _237  and  _240
REMARK  103  A    between atoms: _240  and  _241
REMARK  104  A    between atoms: _246  and  _248
REMARK  105  A    between atoms: _248  and  _249
REMARK  106  A    between atoms: _248  and  _251
REMARK  107  A    between atoms: _251  and  _252
REMARK  108  A    between atoms: _255  and  _257
REMARK  109  A    between atoms: _257  and  _258
REMARK  110  A    between atoms: _257  and  _260
REMARK  111  A    between atoms: _260  and  _261
REMARK  112  A    between atoms: _261  and  _262
REMARK  113  A    between atoms: _267  and  _269
REMARK  114  A    between atoms: _269  and  _270
REMARK  115  A    between atoms: _269  and  _272
REMARK  116  A    between atoms: _272  and  _273
REMARK  117  A    between atoms: _273  and  _274
REMARK  118  A    between atoms: _274  and  _275
REMARK  119  A    between atoms: _284  and  _286
REMARK  120  A    between atoms: _286  and  _287
REMARK  121  A    between atoms: _286  and  _289
REMARK  122  A    between atoms: _289  and  _290
REMARK  123  A    between atoms: _295  and  _297
REMARK  124  A    between atoms: _297  and  _298
REMARK  125  A    between atoms: _297  and  _300
REMARK  126  A    between atoms: _303  and  _305
REMARK  127  A    between atoms: _305  and  _306
REMARK  128  A    between atoms: _305  and  _308
REMARK  129  A    between atoms: _308  and  _309
REMARK  130  A    between atoms: _314  and  _316
REMARK  131  A    between atoms: _316  and  _317
REMARK  132  A    between atoms: _316  and  _319
REMARK  133  A    between atoms: _319  and  _320
REMARK  134  A    between atoms: _323  and  _325
REMARK  135  A    between atoms: _325  and  _326
REMARK  136  A    between atoms: _325  and  _328
REMARK  137  A    between atoms: _328  and  _329
REMARK  138  A    between atoms: _335  and  _337
REMARK  139  A    between atoms: _337  and  _338
REMARK  140  A    between atoms: _337  and  _340
REMARK  141  A    between atoms: _340  and  _341
REMARK  142  A    between atoms: _341  and  _342
REMARK  143  A    between atoms: _342  and  _343
REMARK  144  A    between atoms: _343  and  _344
REMARK  145  A    between atoms: _348  and  _350
REMARK  146  A    between atoms: _350  and  _351
REMARK  147  A    between atoms: _350  and  _353
REMARK  148  A    between atoms: _353  and  _354
REMARK  149  A    between atoms: _360  and  _362
REMARK  150  A    between atoms: _362  and  _363
REMARK  151  A    between atoms: _362  and  _365
REMARK  152  A    between atoms: _365  and  _366
REMARK  153  A    between atoms: _369  and  _371
REMARK  154  A    between atoms: _371  and  _372
REMARK  155  A    between atoms: _371  and  _374
REMARK  156  A    between atoms: _374  and  _375
REMARK  157  A    between atoms: _378  and  _380
REMARK  158  A    between atoms: _380  and  _381
REMARK  159  A    between atoms: _380  and  _383
REMARK  160  A    between atoms: _383  and  _384
REMARK  161  A    between atoms: _389  and  _391
REMARK  162  A    between atoms: _391  and  _392
REMARK  163  A    between atoms: _391  and  _394
REMARK  164  A    between atoms: _394  and  _395
REMARK  165  A    between atoms: _398  and  _400
REMARK  166  A    between atoms: _400  and  _401
REMARK  167  A    between atoms: _400  and  _403
REMARK  168  A    between atoms: _406  and  _408
REMARK  169  A    between atoms: _408  and  _409
REMARK  170  A    between atoms: _408  and  _411
REMARK  171  A    between atoms: _414  and  _416
REMARK  172  A    between atoms: _416  and  _417
REMARK  173  A    between atoms: _416  and  _419
REMARK  174  A    between atoms: _419  and  _420
REMARK  175  A    between atoms: _422  and  _424
REMARK  176  A    between atoms: _424  and  _425
REMARK  177  A    between atoms: _424  and  _427
REMARK  178  A    between atoms: _427  and  _428
REMARK  179  A    between atoms: _433  and  _435
REMARK  180  A    between atoms: _435  and  _436
REMARK  181  A    between atoms: _435  and  _438
REMARK  182  A    between atoms: _441  and  _443
REMARK  183  A    between atoms: _443  and  _444
REMARK  184  A    between atoms: _443  and  _446
REMARK  185  A    between atoms: _446  and  _447
REMARK  186  A    between atoms: _450  and  _452
REMARK  187  A    between atoms: _452  and  _453
REMARK  188  A    between atoms: _452  and  _455
REMARK  189  A    between atoms: _455  and  _456
REMARK  190  A    between atoms: _458  and  _460
REMARK  191  A    between atoms: _460  and  _461
REMARK  192  A    between atoms: _463  and  _465
REMARK  193  A    between atoms: _465  and  _466
REMARK  194  A    between atoms: _465  and  _468
REMARK  195  A    between atoms: _468  and  _469
REMARK  196  A    between atoms: _472  and  _474
REMARK  197  A    between atoms: _474  and  _475
REMARK  198  A    between atoms: _474  and  _477
REMARK  199  A    between atoms: _477  and  _478
REMARK  200  A    between atoms: _481  and  _483
REMARK  201  A    between atoms: _483  and  _484
REMARK  202  A    between atoms: _483  and  _486
REMARK  203  A    between atoms: _486  and  _487
REMARK  204  A    between atoms: _487  and  _488
REMARK  205  A    between atoms: _488  and  _489
REMARK  206  A    between atoms: _498  and  _500
REMARK  207  A    between atoms: _500  and  _501
REMARK  208  A    between atoms: _500  and  _503
REMARK  209  A    between atoms: _503  and  _504
REMARK  210  A    between atoms: _509  and  _511
REMARK  211  A    between atoms: _511  and  _512
REMARK  212  A    between atoms: _514  and  _516
REMARK  213  A    between atoms: _516  and  _517
REMARK  214  A    between atoms: _516  and  _519
REMARK  215  A    between atoms: _522  and  _524
REMARK  216  A    between atoms: _524  and  _525
REMARK  217  A    between atoms: _524  and  _527
REMARK  218  A    between atoms: _530  and  _532
REMARK  219  A    between atoms: _532  and  _533
REMARK  220  A    between atoms: _532  and  _535
REMARK  221  A    between atoms: _535  and  _536
REMARK  222  A    between atoms: _539  and  _541
REMARK  223  A    between atoms: _541  and  _542
REMARK  224  A    between atoms: _541  and  _544
REMARK  225  A    between atoms: _544  and  _545
REMARK  226  A    between atoms: _547  and  _549
REMARK  227  A    between atoms: _549  and  _550
REMARK  228  A    between atoms: _553  and  _555
REMARK  229  A    between atoms: _555  and  _556
REMARK  230  A    between atoms: _555  and  _558
REMARK  231  A    between atoms: _558  and  _559
REMARK  232  A    between atoms: _564  and  _565
REMARK  233  A    between atoms: _567  and  _569
REMARK  234  A    between atoms: _569  and  _570
REMARK  235  A    between atoms: _569  and  _572
REMARK  236  A    between atoms: _572  and  _573
REMARK  237  A    between atoms: _573  and  _574
REMARK  238  A    between atoms: _577  and  _579
REMARK  239  A    between atoms: _579  and  _580
REMARK  240  A    between atoms: _579  and  _582
REMARK  241  A    between atoms: _585  and  _587
REMARK  242  A    between atoms: _587  and  _588
REMARK  243  A    between atoms: _587  and  _590
REMARK  244  A    between atoms: _590  and  _591
REMARK  245  A    between atoms: _594  and  _596
REMARK  246  A    between atoms: _596  and  _597
REMARK  247  A    between atoms: _599  and  _601
REMARK  248  A    between atoms: _601  and  _602
REMARK  249  A    between atoms: _601  and  _604
REMARK  250  A    between atoms: _604  and  _605
REMARK  251  A    between atoms: _610  and  _611
REMARK  252  A    between atoms: _613  and  _615
REMARK  253  A    between atoms: _615  and  _616
REMARK  254  A    between atoms: _615  and  _618
REMARK  255  A    between atoms: _618  and  _619
REMARK  256  A    between atoms: _622  and  _624
REMARK  257  A    between atoms: _624  and  _625
REMARK  258  A    between atoms: _624  and  _627
REMARK  259  A    between atoms: _627  and  _628
REMARK  260  A    between atoms: _631  and  _633
REMARK  261  A    between atoms: _633  and  _634
REMARK  262  A    between atoms: _637  and  _639
REMARK  263  A    between atoms: _639  and  _640
REMARK  264  A    between atoms: _639  and  _642
REMARK  265  A    between atoms: _642  and  _643
REMARK  266  A    between atoms: _646  and  _648
REMARK  267  A    between atoms: _648  and  _649
REMARK  268  A    between atoms: _651  and  _653
REMARK  269  A    between atoms: _653  and  _654
REMARK  270  A    between atoms: _653  and  _656
REMARK  271  A    between atoms: _656  and  _657
REMARK  272  A    between atoms: _659  and  _661
REMARK  273  A    between atoms: _661  and  _662
REMARK  274  A    between atoms: _661  and  _664
REMARK  275  A    between atoms: _667  and  _669
REMARK  276  A    between atoms: _669  and  _670
REMARK  277  A    between atoms: _669  and  _672
REMARK  278  A    between atoms: _672  and  _673
REMARK  279  A    between atoms: _676  and  _678
REMARK  280  A    between atoms: _678  and  _679
REMARK  281  A    between atoms: _678  and  _681
REMARK  282  A    between atoms: _681  and  _682
REMARK                            x       y       z     vdW  Elec       q    Type
REMARK                         _______ _______ _______ _____ _____    ______ ____
ROOT
ATOM      1  CA  HIS A   1       5.206   5.273  49.328  0.00  0.00    +0.151 C 
ENDROOT
BRANCH   1   2
ATOM      2  C   HIS A   1       4.119   6.338  49.204  0.00  0.00    +0.239 C 
ATOM      3  N   GLY A   2       4.129   7.324  50.097  0.00  0.00    -0.297 N 
ATOM      4  H   GLY A   2       4.830   7.323  50.865  0.00  0.00    +0.150 HD
ATOM      5  O   HIS A   1       3.282   6.262  48.311  0.00  0.00    -0.274 OA
BRANCH   3   6
ATOM      6  CA  GLY A   2       3.159   8.404  49.998  0.00  0.00    +0.163 C 
BRANCH   6   7
ATOM      7  C   GLY A   2       2.077   8.393  51.068  0.00  0.00    +0.229 C 
ATOM      8  O   GLY A   2       2.286   7.899  52.178  0.00  0.00    -0.286 OA
ENDBRANCH   6   7
ENDBRANCH   3   6
ENDBRANCH   1   2
BRANCH   1   9
ATOM      9  N   HIS A   1       4.630   3.946  49.105  0.00  0.00    -0.238 NA
ATOM     10  H   HIS A   1       5.001   3.353  48.335  0.00  0.00    +0.142 HD
ENDBRANCH   1   9
BRANCH   1  11
ATOM     11  CB  HIS A   1       6.306   5.544  48.299  0.00  0.00    +0.074 C 
BRANCH  11  12
ATOM     12  CG  HIS A   1       6.888   6.921  48.376  0.00  0.00    +0.082 A 
ATOM     13  ND1 HIS A   1       7.323   7.483  49.557  0.00  0.00    -0.227 NA
ATOM     14  CE1 HIS A   1       7.814   8.687  49.318  0.00  0.00    +0.199 A 
ATOM     15  NE2 HIS A   1       7.712   8.927  48.023  0.00  0.00    -0.221 NA
ATOM     16  CD2 HIS A   1       7.134   7.840  47.412  0.00  0.00    +0.115 A 
ENDBRANCH  11  12
ENDBRANCH   1  11
TORSDOF 6
REMARK  Name = ../refined-set-2016/4i9h/4i9h_pocket.pdb
REMARK  282 active torsions:
REMARK  status: ('A' for Active; 'I' for Inactive)
REMARK    1  A    between atoms: _1  and  _3
REMARK    2  A    between atoms: _3  and  _4
REMARK    3  A    between atoms: _3  and  _6
REMARK    4  A    between atoms: _9  and  _11
REMARK    5  A    between atoms: _11  and  _12
REMARK    6  A    between atoms: _11  and  _14
REMARK    7  A    between atoms: _17  and  _19
REMARK    8  A    between atoms: _19  and  _20
REMARK    9  A    between atoms: _22  and  _24
REMARK   10  A    between atoms: _24  and  _25
REMARK   11  A    between atoms: _24  and  _27
REMARK   12  A    between atoms: _30  and  _32
REMARK   13  A    between atoms: _32  and  _33
REMARK   14  A    between atoms: _35  and  _37
REMARK   15  A    between atoms: _37  and  _38
REMARK   16  A    between atoms: _41  and  _43
REMARK   17  A    between atoms: _43  and  _44
REMARK   18  A    between atoms: _43  and  _46
REMARK   19  A    between atoms: _49  and  _51
REMARK   20  A    between atoms: _51  and  _52
REMARK   21  A    between atoms: _54  and  _56
REMARK   22  A    between atoms: _56  and  _57
REMARK   23  A    between atoms: _56  and  _59
REMARK   24  A    between atoms: _59  and  _60
REMARK   25  A    between atoms: _60  and  _61
REMARK   26  A    between atoms: _63  and  _65
REMARK   27  A    between atoms: _65  and  _66
REMARK   28  A    between atoms: _65  and  _68
REMARK   29  A    between atoms: _70  and  _72
REMARK   30  A    between atoms: _72  and  _73
REMARK   31  A    between atoms: _72  and  _75
REMARK   32  A    between atoms: _75  and  _76
REMARK   33  A    between atoms: _79  and  _81
REMARK   34  A    between atoms: _81  and  _82
REMARK   35  A    between atoms: _81  and  _84
REMARK   36  A    between atoms: _87  and  _89
REMARK   37  A    between atoms: _89  and  _90
REMARK   38  A    between atoms: _89  and  _92
REMARK   39  A    between atoms: _92  and  _93
REMARK   40  A    between atoms: _96  and  _98
REMARK   41  A    between atoms: _98  and  _99
REMARK   42  A    between atoms: _98  and  _101
REMARK   43  A    between atoms: _104  and  _106
REMARK   44  A    between atoms: _106  and  _107
REMARK   45  A    between atoms: _106  and  _109
REMARK   46  A    between atoms: _109  and  _110
REMARK   47  A    between atoms: _110  and  _111
REMARK   48  A    between atoms: _113  and  _115
REMARK   49  A    between atoms: _115  and  _116
REMARK   50  A    between atoms: _115  and  _118
REMARK   51  A    between atoms: _118  and  _119
REMARK   52  A    between atoms: _119  and  _120
REMARK   53  A    between atoms: _120  and  _121
REMARK   54  A    between atoms: _121  and  _122
REMARK   55  A    between atoms: _126  and  _128
REMARK   56  A    between atoms: _128  and  _129
REMARK   57  A    between atoms: _128  and  _131
REMARK   58  A    between atoms: _131  and  _132
REMARK   59  A    between atoms: _135  and  _137
REMARK   60  A    between atoms: _137  and  _138
REMARK   61  A    between atoms: _137  and  _140
REMARK   62  A    between atoms: _140  and  _141
REMARK   63  A    between atoms: _141  and  _142
REMARK   64  A    between atoms: _142  and  _143
REMARK   65  A    between atoms: _143  and  _144
REMARK   66  A    between atoms: _148  and  _150
REMARK   67  A    between atoms: _150  and  _151
REMARK   68  A    between atoms: _150  and  _153
REMARK   69  A    between atoms: _153  and  _154
REMARK   70  A    between atoms: _159  and  _160
REMARK   71  A    between atoms: _162  and  _164
REMARK   72  A    between atoms: _164  and  _165
REMARK   73  A    between atoms: _164  and  _167
REMARK   74  A    between atoms: _167  and  _168
REMARK   75  A    between atoms: _171  and  _173
REMARK   76  A    between atoms: _173  and  _174
REMARK   77  A    between atoms: _173  and  _176
REMARK   78  A    between atoms: _176  and  _177
REMARK   79  A    between atoms: _180  and  _182
REMARK   80  A    between atoms: _182  and  _183
REMARK   81  A    between atoms: _182  and  _185
REMARK   82  A    between atoms: _185  and  _186
REMARK   83  A    between atoms: _189  and  _191
REMARK   84  A    between atoms: _191  and  _192
REMARK   85  A    between atoms: _195  and  _197
REMARK   86  A    between atoms: _197  and  _198
REMARK   87  A    between atoms: _200  and  _202
REMARK   88  A    between atoms: _202  and  _203
REMARK   89  A    between atoms: _206  and  _208
REMARK   90  A    between atoms: _208  and  _209
REMARK   91  A    between atoms: _208  and  _211
REMARK   92  A    between atoms: _211  and  _212
REMARK   93  A    between atoms: _212  and  _213
REMARK   94  A    between atoms: _213  and  _214
REMARK   95  A    between atoms: _223  and  _225
REMARK   96  A    between atoms: _225  and  _226
REMARK   97  A    between atoms: _225  and  _228
REMARK   98  A    between atoms: _228  and  _229
REMARK   99  A    between atoms: _229  and  _230
REMARK  100  A    between atoms: _235  and  _237
REMARK  101  A    between atoms: _237  and  _238
REMARK  102  A    between atoms: _237  and  _240
REMARK  103  A    between atoms: _240  and  _241
REMARK  104  A    between atoms: _246  and  _248
REMARK  105  A    between atoms: _248  and  _249
REMARK  106  A    between atoms: _248  and  _251
REMARK  107  A    between atoms: _251  and  _252
REMARK  108  A    between atoms: _255  and  _257
REMARK  109  A    between atoms: _257  and  _258
REMARK  110  A    between atoms: _257  and  _260
REMARK  111  A    between atoms: _260  and  _261
REMARK  112  A    between atoms: _261  and  _262
REMARK  113  A    between atoms: _267  and  _269
REMARK  114  A    between atoms: _269  and  _270
REMARK  115  A    between atoms: _269  and  _272
REMARK  116  A    between atoms: _272  and  _273
REMARK  117  A    between atoms: _273  and  _274
REMARK  118  A    between atoms: _274  and  _275
REMARK  119  A    between atoms: _284  and  _286
REMARK  120  A    between atoms: _286  and  _287
REMARK  121  A    between atoms: _286  and  _289
REMARK  122  A    between atoms: _289  and  _290
REMARK  123  A    between atoms: _295  and  _297
REMARK  124  A    between atoms: _297  and  _298
REMARK  125  A    between atoms: _297  and  _300
REMARK  126  A    between atoms: _303  and  _305
REMARK  127  A    between atoms: _305  and  _306
REMARK  128  A    between atoms: _305  and  _308
REMARK  129  A    between atoms: _308  and  _309
REMARK  130  A    between atoms: _314  and  _316
REMARK  131  A    between atoms: _316  and  _317
REMARK  132  A    between atoms: _316  and  _319
REMARK  133  A    between atoms: _319  and  _320
REMARK  134  A    between atoms: _323  and  _325
REMARK  135  A    between atoms: _325  and  _326
REMARK  136  A    between atoms: _325  and  _328
REMARK  137  A    between atoms: _328  and  _329
REMARK  138  A    between atoms: _335  and  _337
REMARK  139  A    between atoms: _337  and  _338
REMARK  140  A    between atoms: _337  and  _340
REMARK  141  A    between atoms: _340  and  _341
REMARK  142  A    between atoms: _341  and  _342
REMARK  143  A    between atoms: _342  and  _343
REMARK  144  A    between atoms: _343  and  _344
REMARK  145  A    between atoms: _348  and  _350
REMARK  146  A    between atoms: _350  and  _351
REMARK  147  A    between atoms: _350  and  _353
REMARK  148  A    between atoms: _353  and  _354
REMARK  149  A    between atoms: _360  and  _362
REMARK  150  A    between atoms: _362  and  _363
REMARK  151  A    between atoms: _362  and  _365
REMARK  152  A    between atoms: _365  and  _366
REMARK  153  A    between atoms: _369  and  _371
REMARK  154  A    between atoms: _371  and  _372
REMARK  155  A    between atoms: _371  and  _374
REMARK  156  A    between atoms: _374  and  _375
REMARK  157  A    between atoms: _378  and  _380
REMARK  158  A    between atoms: _380  and  _381
REMARK  159  A    between atoms: _380  and  _383
REMARK  160  A    between atoms: _383  and  _384
REMARK  161  A    between atoms: _389  and  _391
REMARK  162  A    between atoms: _391  and  _392
REMARK  163  A    between atoms: _391  and  _394
REMARK  164  A    between atoms: _394  and  _395
REMARK  165  A    between atoms: _398  and  _400
REMARK  166  A    between atoms: _400  and  _401
REMARK  167  A    between atoms: _400  and  _403
REMARK  168  A    between atoms: _406  and  _408
REMARK  169  A    between atoms: _408  and  _409
REMARK  170  A    between atoms: _408  and  _411
REMARK  171  A    between atoms: _414  and  _416
REMARK  172  A    between atoms: _416  and  _417
REMARK  173  A    between atoms: _416  and  _419
REMARK  174  A    between atoms: _419  and  _420
REMARK  175  A    between atoms: _422  and  _424
REMARK  176  A    between atoms: _424  and  _425
REMARK  177  A    between atoms: _424  and  _427
REMARK  178  A    between atoms: _427  and  _428
REMARK  179  A    between atoms: _433  and  _435
REMARK  180  A    between atoms: _435  and  _436
REMARK  181  A    between atoms: _435  and  _438
REMARK  182  A    between atoms: _441  and  _443
REMARK  183  A    between atoms: _443  and  _444
REMARK  184  A    between atoms: _443  and  _446
REMARK  185  A    between atoms: _446  and  _447
REMARK  186  A    between atoms: _450  and  _452
REMARK  187  A    between atoms: _452  and  _453
REMARK  188  A    between atoms: _452  and  _455
REMARK  189  A    between atoms: _455  and  _456
REMARK  190  A    between atoms: _458  and  _460
REMARK  191  A    between atoms: _460  and  _461
REMARK  192  A    between atoms: _463  and  _465
REMARK  193  A    between atoms: _465  and  _466
REMARK  194  A    between atoms: _465  and  _468
REMARK  195  A    between atoms: _468  and  _469
REMARK  196  A    between atoms: _472  and  _474
REMARK  197  A    between atoms: _474  and  _475
REMARK  198  A    between atoms: _474  and  _477
REMARK  199  A    between atoms: _477  and  _478
REMARK  200  A    between atoms: _481  and  _483
REMARK  201  A    between atoms: _483  and  _484
REMARK  202  A    between atoms: _483  and  _486
REMARK  203  A    between atoms: _486  and  _487
REMARK  204  A    between atoms: _487  and  _488
REMARK  205  A    between atoms: _488  and  _489
REMARK  206  A    between atoms: _498  and  _500
REMARK  207  A    between atoms: _500  and  _501
REMARK  208  A    between atoms: _500  and  _503
REMARK  209  A    between atoms: _503  and  _504
REMARK  210  A    between atoms: _509  and  _511
REMARK  211  A    between atoms: _511  and  _512
REMARK  212  A    between atoms: _514  and  _516
REMARK  213  A    between atoms: _516  and  _517
REMARK  214  A    between atoms: _516  and  _519
REMARK  215  A    between atoms: _522  and  _524
REMARK  216  A    between atoms: _524  and  _525
REMARK  217  A    between atoms: _524  and  _527
REMARK  218  A    between atoms: _530  and  _532
REMARK  219  A    between atoms: _532  and  _533
REMARK  220  A    between atoms: _532  and  _535
REMARK  221  A    between atoms: _535  and  _536
REMARK  222  A    between atoms: _539  and  _541
REMARK  223  A    between atoms: _541  and  _542
REMARK  224  A    between atoms: _541  and  _544
REMARK  225  A    between atoms: _544  and  _545
REMARK  226  A    between atoms: _547  and  _549
REMARK  227  A    between atoms: _549  and  _550
REMARK  228  A    between atoms: _553  and  _555
REMARK  229  A    between atoms: _555  and  _556
REMARK  230  A    between atoms: _555  and  _558
REMARK  231  A    between atoms: _558  and  _559
REMARK  232  A    between atoms: _564  and  _565
REMARK  233  A    between atoms: _567  and  _569
REMARK  234  A    between atoms: _569  and  _570
REMARK  235  A    between atoms: _569  and  _572
REMARK  236  A    between atoms: _572  and  _573
REMARK  237  A    between atoms: _573  and  _574
REMARK  238  A    between atoms: _577  and  _579
REMARK  239  A    between atoms: _579  and  _580
REMARK  240  A    between atoms: _579  and  _582
REMARK  241  A    between atoms: _585  and  _587
REMARK  242  A    between atoms: _587  and  _588
REMARK  243  A    between atoms: _587  and  _590
REMARK  244  A    between atoms: _590  and  _591
REMARK  245  A    between atoms: _594  and  _596
REMARK  246  A    between atoms: _596  and  _597
REMARK  247  A    between atoms: _599  and  _601
REMARK  248  A    between atoms: _601  and  _602
REMARK  249  A    between atoms: _601  and  _604
REMARK  250  A    between atoms: _604  and  _605
REMARK  251  A    between atoms: _610  and  _611
REMARK  252  A    between atoms: _613  and  _615
REMARK  253  A    between atoms: _615  and  _616
REMARK  254  A    between atoms: _615  and  _618
REMARK  255  A    between atoms: _618  and  _619
REMARK  256  A    between atoms: _622  and  _624
REMARK  257  A    between atoms: _624  and  _625
REMARK  258  A    between atoms: _624  and  _627
REMARK  259  A    between atoms: _627  and  _628
REMARK  260  A    between atoms: _631  and  _633
REMARK  261  A    between atoms: _633  and  _634
REMARK  262  A    between atoms: _637  and  _639
REMARK  263  A    between atoms: _639  and  _640
REMARK  264  A    between atoms: _639  and  _642
REMARK  265  A    between atoms: _642  and  _643
REMARK  266  A    between atoms: _646  and  _648
REMARK  267  A    between atoms: _648  and  _649
REMARK  268  A    between atoms: _651  and  _653
REMARK  269  A    between atoms: _653  and  _654
REMARK  270  A    between atoms: _653  and  _656
REMARK  271  A    between atoms: _656  and  _657
REMARK  272  A    between atoms: _659  and  _661
REMARK  273  A    between atoms: _661  and  _662
REMARK  274  A    between atoms: _661  and  _664
REMARK  275  A    between atoms: _667  and  _669
REMARK  276  A    between atoms: _669  and  _670
REMARK  277  A    between atoms: _669  and  _672
REMARK  278  A    between atoms: _672  and  _673
REMARK  279  A    between atoms: _676  and  _678
REMARK  280  A    between atoms: _678  and  _679
REMARK  281  A    between atoms: _678  and  _681
REMARK  282  A    between atoms: _681  and  _682
REMARK                            x       y       z     vdW  Elec       q    Type
REMARK                         _______ _______ _______ _____ _____    ______ ____
ROOT
ATOM      1  C   ALA A   5       6.789  18.025  50.173  0.00  0.00    +0.241 C 
ATOM      2  N   TYR A   6       5.469  17.900  50.226  0.00  0.00    -0.297 N 
ATOM      3  H   TYR A   6       5.061  17.026  50.616  0.00  0.00    +0.150 HD
ATOM      4  O   ALA A   5       7.357  18.979  49.631  0.00  0.00    -0.273 OA
ENDROOT
BRANCH   1   5
ATOM      5  CA  ALA A   5       7.580  16.902  50.833  0.00  0.00    +0.149 C 
ATOM      6  CB  ALA A   5       7.467  15.638  49.999  0.00  0.00    +0.031 C 
BRANCH   5   9
ATOM      7  C   SER A   4       7.114  17.589  53.128  0.00  0.00    +0.243 C 
ATOM      8  O   SER A   4       7.551  18.725  52.930  0.00  0.00    -0.273 OA
ATOM      9  N   ALA A   5       7.097  16.647  52.187  0.00  0.00    -0.297 N 
ATOM     10  H   ALA A   5       6.729  15.703  52.423  0.00  0.00    +0.150 HD
BRANCH   7  11
ATOM     11  CA  SER A   4       6.539  17.205  54.492  0.00  0.00    +0.178 C 
BRANCH  11  13
ATOM     12  C   ASP A   3       4.315  16.782  53.656  0.00  0.00    +0.241 C 
ATOM     13  N   SER A   4       5.359  16.353  54.354  0.00  0.00    -0.295 N 
ATOM     14  H   SER A   4       5.338  15.414  54.801  0.00  0.00    +0.150 HD
ATOM     15  O   ASP A   3       4.383  17.744  52.894  0.00  0.00    -0.273 OA
BRANCH  12  16
ATOM     16  CA  ASP A   3       2.994  16.046  53.856  0.00  0.00    +0.160 C 
BRANCH  16  18
ATOM     17  C   VAL A   2       3.235  13.621  53.690  0.00  0.00    +0.241 C 
ATOM     18  N   ASP A   3       3.175  14.718  54.443  0.00  0.00    -0.297 N 
ATOM     19  H   ASP A   3       3.259  14.628  55.476  0.00  0.00    +0.150 HD
ATOM     20  O   VAL A   2       3.119  13.640  52.463  0.00  0.00    -0.273 OA
BRANCH  17  21
ATOM     21  CA  VAL A   2       3.454  12.303  54.424  0.00  0.00    +0.148 C 
BRANCH  21  23
ATOM     22  C   VAL A   1       5.359  12.898  55.798  0.00  0.00    +0.238 C 
ATOM     23  N   VAL A   2       4.098  12.495  55.708  0.00  0.00    -0.297 N 
ATOM     24  H   VAL A   2       3.559  12.313  56.579  0.00  0.00    +0.150 HD
ATOM     25  O   VAL A   1       6.051  13.178  54.816  0.00  0.00    -0.274 OA
BRANCH  22  26
ATOM     26  CA  VAL A   1       5.919  12.997  57.210  0.00  0.00    +0.145 C 
BRANCH  26  27
ATOM     27  CB  VAL A   1       6.284  11.571  57.681  0.00  0.00    +0.025 C 
ATOM     28  CG2 VAL A   1       7.083  11.640  58.966  0.00  0.00    +0.002 C 
ATOM     29  CG1 VAL A   1       7.088  10.850  56.590  0.00  0.00    +0.002 C 
ENDBRANCH  26  27
BRANCH  26  30
ATOM     30  N   VAL A   1       4.946  13.621  58.097  0.00  0.00    -0.238 NA
ATOM     31  H   VAL A   1       4.499  13.056  58.848  0.00  0.00    +0.142 HD
ENDBRANCH  26  30
ENDBRANCH  22  26
ENDBRANCH  21  23
BRANCH  21  32
ATOM     32  CB  VAL A   2       2.106  11.580  54.601  0.00  0.00    +0.027 C 
ATOM     33  CG2 VAL A   2       2.356  10.140  55.034  0.00  0.00    +0.002 C 
ATOM     34  CG1 VAL A   2       1.326  11.603  53.302  0.00  0.00    +0.002 C 
ENDBRANCH  21  32
ENDBRANCH  17  21
ENDBRANCH  16  18
BRANCH  16  35
ATOM     35  CB  ASP A   3       2.101  16.920  54.746  0.00  0.00    +0.143 C 
BRANCH  35  36
ATOM     36  CG  ASP A   3       0.649  16.467  54.762  0.00  0.00    +0.367 C 
ATOM     37  OD2 ASP A   3      -0.129  17.041  55.553  0.00  0.00    -0.246 OA
ATOM     38  OD1 ASP A   3       0.286  15.547  53.994  0.00  0.00    -0.246 OA
ENDBRANCH  35  36
ENDBRANCH  16  35
ENDBRANCH  12  16
ENDBRANCH  11  13
BRANCH  11  39
ATOM     39  CB  SER A   4       7.606  16.506  55.338  0.00  0.00    +0.166 C 
BRANCH  39  40
ATOM     40  OG  SER A   4       8.067  15.352  54.674  0.00  0.00    -0.380 OA
ATOM     41  H   SER A   4       7.309  14.732  54.527  0.00  0.00    +0.211 HD
ENDBRANCH  39  40
ENDBRANCH  11  39
ENDBRANCH   7  11
ENDBRANCH   5   9
ENDBRANCH   1   5
BRANCH   2  42
ATOM     42  CA  TYR A   6       4.575  18.945  49.757  0.00  0.00    +0.153 C 
BRANCH  42  43
ATOM     43  C   TYR A   6       4.897  20.296  50.411  0.00  0.00    +0.241 C 
ATOM     44  N   GLU A   7       5.197  20.290  51.706  0.00  0.00    -0.297 N 
ATOM     45  H   GLU A   7       5.220  19.389  52.225  0.00  0.00    +0.150 HD
ATOM     46  O   TYR A   6       4.892  21.328  49.745  0.00  0.00    -0.273 OA
BRANCH  44  47
ATOM     47  CA  GLU A   7       5.494  21.537  52.406  0.00  0.00    +0.149 C 
BRANCH  47  48
ATOM     48  C   GLU A   7       6.823  22.133  51.945  0.00  0.00    +0.241 C 
ATOM     49  O   GLU A   7       6.945  23.348  51.784  0.00  0.00    -0.273 OA
ATOM     50  N   VAL A   8       7.820  21.283  51.726  0.00  0.00    -0.297 N 
ATOM     51  H   VAL A   8       7.666  20.263  51.855  0.00  0.00    +0.150 HD
BRANCH  50  52
ATOM     52  CA  VAL A   8       9.131  21.771  51.305  0.00  0.00    +0.149 C 
BRANCH  52  53
ATOM     53  C   VAL A   8       9.074  22.294  49.869  0.00  0.00    +0.241 C 
ATOM     54  O   VAL A   8       9.612  23.354  49.572  0.00  0.00    -0.273 OA
ATOM     55  N   ILE A   9       8.407  21.554  48.988  0.00  0.00    -0.298 N 
ATOM     56  H   ILE A   9       8.047  20.623  49.278  0.00  0.00    +0.150 HD
BRANCH  55  57
ATOM     57  CA  ILE A   9       8.167  22.017  47.620  0.00  0.00    +0.137 C 
BRANCH  57  58
ATOM     58  C   ILE A   9       7.461  23.378  47.599  0.00  0.00    +0.227 C 
ATOM     59  O   ILE A   9       7.790  24.256  46.802  0.00  0.00    -0.286 OA
ENDBRANCH  57  58
BRANCH  57  60
ATOM     60  CB  ILE A   9       7.304  20.999  46.842  0.00  0.00    +0.026 C 
ATOM     61  CG2 ILE A   9       6.768  21.630  45.570  0.00  0.00    +0.002 C 
BRANCH  60  62
ATOM     62  CG1 ILE A   9       8.128  19.739  46.553  0.00  0.00    +0.002 C 
ATOM     63  CD1 ILE A   9       7.312  18.568  46.052  0.00  0.00    +0.000 C 
ENDBRANCH  60  62
ENDBRANCH  57  60
ENDBRANCH  55  57
ENDBRANCH  52  53
BRANCH  52  64
ATOM     64  CB  VAL A   8      10.205  20.664  51.410  0.00  0.00    +0.027 C 
ATOM     65  CG2 VAL A   8      10.308  20.171  52.857  0.00  0.00    +0.002 C 
ATOM     66  CG1 VAL A   8      11.549  21.201  50.933  0.00  0.00    +0.002 C 
ENDBRANCH  52  64
ENDBRANCH  50  52
ENDBRANCH  47  48
BRANCH  47  67
ATOM     67  CB  GLU A   7       5.537  21.317  53.925  0.00  0.00    +0.041 C 
BRANCH  67  68
ATOM     68  CG  GLU A   7       4.225  20.856  54.552  0.00  0.00    +0.116 C 
BRANCH  68  69
ATOM     69  CD  GLU A   7       3.171  21.954  54.639  0.00  0.00    +0.365 C 
ATOM     70  OE2 GLU A   7       2.129  21.712  55.288  0.00  0.00    -0.246 OA
ATOM     71  OE1 GLU A   7       3.371  23.048  54.065  0.00  0.00    -0.246 OA
ENDBRANCH  68  69
ENDBRANCH  67  68
ENDBRANCH  47  67
ENDBRANCH  44  47
ENDBRANCH  42  43
BRANCH  42  72
ATOM     72  CB  TYR A   6       3.118  18.542  50.037  0.00  0.00    +0.055 C 
BRANCH  72  73
ATOM     73  CG  TYR A   6       2.158  19.709  50.110  0.00  0.00    -0.020 A 
ATOM     74  CD2 TYR A   6       1.881  20.323  51.327  0.00  0.00    -0.001 A 
ATOM     75  CE2 TYR A   6       1.038  21.417  51.407  0.00  0.00    +0.036 A 
ATOM     76  CZ  TYR A   6       0.455  21.914  50.261  0.00  0.00    +0.134 A 
ATOM     77  CE1 TYR A   6       0.705  21.321  49.032  0.00  0.00    +0.036 A 
ATOM     78  CD1 TYR A   6       1.554  20.221  48.963  0.00  0.00    -0.001 A 
BRANCH  76  79
ATOM     79  OH  TYR A   6      -0.362  23.020  50.351  0.00  0.00    -0.506 OA
ATOM     80  HH  TYR A   6      -0.701  23.253  49.450  0.00  0.00    +0.292 HD
ENDBRANCH  76  79
ENDBRANCH  72  73
ENDBRANCH  42  72
ENDBRANCH   2  42
TORSDOF 33
REMARK  Name = ../refined-set-2016/4i9h/4i9h_pocket.pdb
REMARK  282 active torsions:
REMARK  status: ('A' for Active; 'I' for Inactive)
REMARK    1  A    between atoms: _1  and  _3
REMARK    2  A    between atoms: _3  and  _4
REMARK    3  A    between atoms: _3  and  _6
REMARK    4  A    between atoms: _9  and  _11
REMARK    5  A    between atoms: _11  and  _12
REMARK    6  A    between atoms: _11  and  _14
REMARK    7  A    between atoms: _17  and  _19
REMARK    8  A    between atoms: _19  and  _20
REMARK    9  A    between atoms: _22  and  _24
REMARK   10  A    between atoms: _24  and  _25
REMARK   11  A    between atoms: _24  and  _27
REMARK   12  A    between atoms: _30  and  _32
REMARK   13  A    between atoms: _32  and  _33
REMARK   14  A    between atoms: _35  and  _37
REMARK   15  A    between atoms: _37  and  _38
REMARK   16  A    between atoms: _41  and  _43
REMARK   17  A    between atoms: _43  and  _44
REMARK   18  A    between atoms: _43  and  _46
REMARK   19  A    between atoms: _49  and  _51
REMARK   20  A    between atoms: _51  and  _52
REMARK   21  A    between atoms: _54  and  _56
REMARK   22  A    between atoms: _56  and  _57
REMARK   23  A    between atoms: _56  and  _59
REMARK   24  A    between atoms: _59  and  _60
REMARK   25  A    between atoms: _60  and  _61
REMARK   26  A    between atoms: _63  and  _65
REMARK   27  A    between atoms: _65  and  _66
REMARK   28  A    between atoms: _65  and  _68
REMARK   29  A    between atoms: _70  and  _72
REMARK   30  A    between atoms: _72  and  _73
REMARK   31  A    between atoms: _72  and  _75
REMARK   32  A    between atoms: _75  and  _76
REMARK   33  A    between atoms: _79  and  _81
REMARK   34  A    between atoms: _81  and  _82
REMARK   35  A    between atoms: _81  and  _84
REMARK   36  A    between atoms: _87  and  _89
REMARK   37  A    between atoms: _89  and  _90
REMARK   38  A    between atoms: _89  and  _92
REMARK   39  A    between atoms: _92  and  _93
REMARK   40  A    between atoms: _96  and  _98
REMARK   41  A    between atoms: _98  and  _99
REMARK   42  A    between atoms: _98  and  _101
REMARK   43  A    between atoms: _104  and  _106
REMARK   44  A    between atoms: _106  and  _107
REMARK   45  A    between atoms: _106  and  _109
REMARK   46  A    between atoms: _109  and  _110
REMARK   47  A    between atoms: _110  and  _111
REMARK   48  A    between atoms: _113  and  _115
REMARK   49  A    between atoms: _115  and  _116
REMARK   50  A    between atoms: _115  and  _118
REMARK   51  A    between atoms: _118  and  _119
REMARK   52  A    between atoms: _119  and  _120
REMARK   53  A    between atoms: _120  and  _121
REMARK   54  A    between atoms: _121  and  _122
REMARK   55  A    between atoms: _126  and  _128
REMARK   56  A    between atoms: _128  and  _129
REMARK   57  A    between atoms: _128  and  _131
REMARK   58  A    between atoms: _131  and  _132
REMARK   59  A    between atoms: _135  and  _137
REMARK   60  A    between atoms: _137  and  _138
REMARK   61  A    between atoms: _137  and  _140
REMARK   62  A    between atoms: _140  and  _141
REMARK   63  A    between atoms: _141  and  _142
REMARK   64  A    between atoms: _142  and  _143
REMARK   65  A    between atoms: _143  and  _144
REMARK   66  A    between atoms: _148  and  _150
REMARK   67  A    between atoms: _150  and  _151
REMARK   68  A    between atoms: _150  and  _153
REMARK   69  A    between atoms: _153  and  _154
REMARK   70  A    between atoms: _159  and  _160
REMARK   71  A    between atoms: _162  and  _164
REMARK   72  A    between atoms: _164  and  _165
REMARK   73  A    between atoms: _164  and  _167
REMARK   74  A    between atoms: _167  and  _168
REMARK   75  A    between atoms: _171  and  _173
REMARK   76  A    between atoms: _173  and  _174
REMARK   77  A    between atoms: _173  and  _176
REMARK   78  A    between atoms: _176  and  _177
REMARK   79  A    between atoms: _180  and  _182
REMARK   80  A    between atoms: _182  and  _183
REMARK   81  A    between atoms: _182  and  _185
REMARK   82  A    between atoms: _185  and  _186
REMARK   83  A    between atoms: _189  and  _191
REMARK   84  A    between atoms: _191  and  _192
REMARK   85  A    between atoms: _195  and  _197
REMARK   86  A    between atoms: _197  and  _198
REMARK   87  A    between atoms: _200  and  _202
REMARK   88  A    between atoms: _202  and  _203
REMARK   89  A    between atoms: _206  and  _208
REMARK   90  A    between atoms: _208  and  _209
REMARK   91  A    between atoms: _208  and  _211
REMARK   92  A    between atoms: _211  and  _212
REMARK   93  A    between atoms: _212  and  _213
REMARK   94  A    between atoms: _213  and  _214
REMARK   95  A    between atoms: _223  and  _225
REMARK   96  A    between atoms: _225  and  _226
REMARK   97  A    between atoms: _225  and  _228
REMARK   98  A    between atoms: _228  and  _229
REMARK   99  A    between atoms: _229  and  _230
REMARK  100  A    between atoms: _235  and  _237
REMARK  101  A    between atoms: _237  and  _238
REMARK  102  A    between atoms: _237  and  _240
REMARK  103  A    between atoms: _240  and  _241
REMARK  104  A    between atoms: _246  and  _248
REMARK  105  A    between atoms: _248  and  _249
REMARK  106  A    between atoms: _248  and  _251
REMARK  107  A    between atoms: _251  and  _252
REMARK  108  A    between atoms: _255  and  _257
REMARK  109  A    between atoms: _257  and  _258
REMARK  110  A    between atoms: _257  and  _260
REMARK  111  A    between atoms: _260  and  _261
REMARK  112  A    between atoms: _261  and  _262
REMARK  113  A    between atoms: _267  and  _269
REMARK  114  A    between atoms: _269  and  _270
REMARK  115  A    between atoms: _269  and  _272
REMARK  116  A    between atoms: _272  and  _273
REMARK  117  A    between atoms: _273  and  _274
REMARK  118  A    between atoms: _274  and  _275
REMARK  119  A    between atoms: _284  and  _286
REMARK  120  A    between atoms: _286  and  _287
REMARK  121  A    between atoms: _286  and  _289
REMARK  122  A    between atoms: _289  and  _290
REMARK  123  A    between atoms: _295  and  _297
REMARK  124  A    between atoms: _297  and  _298
REMARK  125  A    between atoms: _297  and  _300
REMARK  126  A    between atoms: _303  and  _305
REMARK  127  A    between atoms: _305  and  _306
REMARK  128  A    between atoms: _305  and  _308
REMARK  129  A    between atoms: _308  and  _309
REMARK  130  A    between atoms: _314  and  _316
REMARK  131  A    between atoms: _316  and  _317
REMARK  132  A    between atoms: _316  and  _319
REMARK  133  A    between atoms: _319  and  _320
REMARK  134  A    between atoms: _323  and  _325
REMARK  135  A    between atoms: _325  and  _326
REMARK  136  A    between atoms: _325  and  _328
REMARK  137  A    between atoms: _328  and  _329
REMARK  138  A    between atoms: _335  and  _337
REMARK  139  A    between atoms: _337  and  _338
REMARK  140  A    between atoms: _337  and  _340
REMARK  141  A    between atoms: _340  and  _341
REMARK  142  A    between atoms: _341  and  _342
REMARK  143  A    between atoms: _342  and  _343
REMARK  144  A    between atoms: _343  and  _344
REMARK  145  A    between atoms: _348  and  _350
REMARK  146  A    between atoms: _350  and  _351
REMARK  147  A    between atoms: _350  and  _353
REMARK  148  A    between atoms: _353  and  _354
REMARK  149  A    between atoms: _360  and  _362
REMARK  150  A    between atoms: _362  and  _363
REMARK  151  A    between atoms: _362  and  _365
REMARK  152  A    between atoms: _365  and  _366
REMARK  153  A    between atoms: _369  and  _371
REMARK  154  A    between atoms: _371  and  _372
REMARK  155  A    between atoms: _371  and  _374
REMARK  156  A    between atoms: _374  and  _375
REMARK  157  A    between atoms: _378  and  _380
REMARK  158  A    between atoms: _380  and  _381
REMARK  159  A    between atoms: _380  and  _383
REMARK  160  A    between atoms: _383  and  _384
REMARK  161  A    between atoms: _389  and  _391
REMARK  162  A    between atoms: _391  and  _392
REMARK  163  A    between atoms: _391  and  _394
REMARK  164  A    between atoms: _394  and  _395
REMARK  165  A    between atoms: _398  and  _400
REMARK  166  A    between atoms: _400  and  _401
REMARK  167  A    between atoms: _400  and  _403
REMARK  168  A    between atoms: _406  and  _408
REMARK  169  A    between atoms: _408  and  _409
REMARK  170  A    between atoms: _408  and  _411
REMARK  171  A    between atoms: _414  and  _416
REMARK  172  A    between atoms: _416  and  _417
REMARK  173  A    between atoms: _416  and  _419
REMARK  174  A    between atoms: _419  and  _420
REMARK  175  A    between atoms: _422  and  _424
REMARK  176  A    between atoms: _424  and  _425
REMARK  177  A    between atoms: _424  and  _427
REMARK  178  A    between atoms: _427  and  _428
REMARK  179  A    between atoms: _433  and  _435
REMARK  180  A    between atoms: _435  and  _436
REMARK  181  A    between atoms: _435  and  _438
REMARK  182  A    between atoms: _441  and  _443
REMARK  183  A    between atoms: _443  and  _444
REMARK  184  A    between atoms: _443  and  _446
REMARK  185  A    between atoms: _446  and  _447
REMARK  186  A    between atoms: _450  and  _452
REMARK  187  A    between atoms: _452  and  _453
REMARK  188  A    between atoms: _452  and  _455
REMARK  189  A    between atoms: _455  and  _456
REMARK  190  A    between atoms: _458  and  _460
REMARK  191  A    between atoms: _460  and  _461
REMARK  192  A    between atoms: _463  and  _465
REMARK  193  A    between atoms: _465  and  _466
REMARK  194  A    between atoms: _465  and  _468
REMARK  195  A    between atoms: _468  and  _469
REMARK  196  A    between atoms: _472  and  _474
REMARK  197  A    between atoms: _474  and  _475
REMARK  198  A    between atoms: _474  and  _477
REMARK  199  A    between atoms: _477  and  _478
REMARK  200  A    between atoms: _481  and  _483
REMARK  201  A    between atoms: _483  and  _484
REMARK  202  A    between atoms: _483  and  _486
REMARK  203  A    between atoms: _486  and  _487
REMARK  204  A    between atoms: _487  and  _488
REMARK  205  A    between atoms: _488  and  _489
REMARK  206  A    between atoms: _498  and  _500
REMARK  207  A    between atoms: _500  and  _501
REMARK  208  A    between atoms: _500  and  _503
REMARK  209  A    between atoms: _503  and  _504
REMARK  210  A    between atoms: _509  and  _511
REMARK  211  A    between atoms: _511  and  _512
REMARK  212  A    between atoms: _514  and  _516
REMARK  213  A    between atoms: _516  and  _517
REMARK  214  A    between atoms: _516  and  _519
REMARK  215  A    between atoms: _522  and  _524
REMARK  216  A    between atoms: _524  and  _525
REMARK  217  A    between atoms: _524  and  _527
REMARK  218  A    between atoms: _530  and  _532
REMARK  219  A    between atoms: _532  and  _533
REMARK  220  A    between atoms: _532  and  _535
REMARK  221  A    between atoms: _535  and  _536
REMARK  222  A    between atoms: _539  and  _541
REMARK  223  A    between atoms: _541  and  _542
REMARK  224  A    between atoms: _541  and  _544
REMARK  225  A    between atoms: _544  and  _545
REMARK  226  A    between atoms: _547  and  _549
REMARK  227  A    between atoms: _549  and  _550
REMARK  228  A    between atoms: _553  and  _555
REMARK  229  A    between atoms: _555  and  _556
REMARK  230  A    between atoms: _555  and  _558
REMARK  231  A    between atoms: _558  and  _559
REMARK  232  A    between atoms: _564  and  _565
REMARK  233  A    between atoms: _567  and  _569
REMARK  234  A    between atoms: _569  and  _570
REMARK  235  A    between atoms: _569  and  _572
REMARK  236  A    between atoms: _572  and  _573
REMARK  237  A    between atoms: _573  and  _574
REMARK  238  A    between atoms: _577  and  _579
REMARK  239  A    between atoms: _579  and  _580
REMARK  240  A    between atoms: _579  and  _582
REMARK  241  A    between atoms: _585  and  _587
REMARK  242  A    between atoms: _587  and  _588
REMARK  243  A    between atoms: _587  and  _590
REMARK  244  A    between atoms: _590  and  _591
REMARK  245  A    between atoms: _594  and  _596
REMARK  246  A    between atoms: _596  and  _597
REMARK  247  A    between atoms: _599  and  _601
REMARK  248  A    between atoms: _601  and  _602
REMARK  249  A    between atoms: _601  and  _604
REMARK  250  A    between atoms: _604  and  _605
REMARK  251  A    between atoms: _610  and  _611
REMARK  252  A    between atoms: _613  and  _615
REMARK  253  A    between atoms: _615  and  _616
REMARK  254  A    between atoms: _615  and  _618
REMARK  255  A    between atoms: _618  and  _619
REMARK  256  A    between atoms: _622  and  _624
REMARK  257  A    between atoms: _624  and  _625
REMARK  258  A    between atoms: _624  and  _627
REMARK  259  A    between atoms: _627  and  _628
REMARK  260  A    between atoms: _631  and  _633
REMARK  261  A    between atoms: _633  and  _634
REMARK  262  A    between atoms: _637  and  _639
REMARK  263  A    between atoms: _639  and  _640
REMARK  264  A    between atoms: _639  and  _642
REMARK  265  A    between atoms: _642  and  _643
REMARK  266  A    between atoms: _646  and  _648
REMARK  267  A    between atoms: _648  and  _649
REMARK  268  A    between atoms: _651  and  _653
REMARK  269  A    between atoms: _653  and  _654
REMARK  270  A    between atoms: _653  and  _656
REMARK  271  A    between atoms: _656  and  _657
REMARK  272  A    between atoms: _659  and  _661
REMARK  273  A    between atoms: _661  and  _662
REMARK  274  A    between atoms: _661  and  _664
REMARK  275  A    between atoms: _667  and  _669
REMARK  276  A    between atoms: _669  and  _670
REMARK  277  A    between atoms: _669  and  _672
REMARK  278  A    between atoms: _672  and  _673
REMARK  279  A    between atoms: _676  and  _678
REMARK  280  A    between atoms: _678  and  _679
REMARK  281  A    between atoms: _678  and  _681
REMARK  282  A    between atoms: _681  and  _682
REMARK                            x       y       z     vdW  Elec       q    Type
REMARK                         _______ _______ _______ _____ _____    ______ ____
ROOT
ATOM      1  C   TYR A   2      12.014  20.610  46.456  0.00  0.00    +0.241 C 
ATOM      2  O   TYR A   2      12.331  21.445  47.302  0.00  0.00    -0.273 OA
ATOM      3  N   THR A   3      12.276  19.315  46.597  0.00  0.00    -0.295 N 
ATOM      4  H   THR A   3      11.825  18.625  45.962  0.00  0.00    +0.150 HD
ENDROOT
BRANCH   1   5
ATOM      5  CA  TYR A   2      11.293  21.045  45.181  0.00  0.00    +0.153 C 
BRANCH   5   7
ATOM      6  C   GLY A   1      10.164  23.133  44.533  0.00  0.00    +0.240 C 
ATOM      7  N   TYR A   2      10.981  22.465  45.346  0.00  0.00    -0.297 N 
ATOM      8  H   TYR A   2      11.419  22.978  46.137  0.00  0.00    +0.150 HD
ATOM      9  O   GLY A   1       9.572  22.614  43.588  0.00  0.00    -0.274 OA
BRANCH   6  10
ATOM     10  CA  GLY A   1       9.984  24.608  44.833  0.00  0.00    +0.169 C 
BRANCH  10  11
ATOM     11  N   GLY A   1      10.271  24.983  46.207  0.00  0.00    -0.236 NA
ATOM     12  H   GLY A   1       9.555  24.833  46.946  0.00  0.00    +0.142 HD
ENDBRANCH  10  11
ENDBRANCH   6  10
ENDBRANCH   5   7
BRANCH   5  13
ATOM     13  CB  TYR A   2      12.220  20.848  43.979  0.00  0.00    +0.055 C 
BRANCH  13  14
ATOM     14  CG  TYR A   2      13.509  21.634  44.103  0.00  0.00    -0.020 A 
ATOM     15  CD2 TYR A   2      14.598  21.115  44.797  0.00  0.00    -0.001 A 
ATOM     16  CE2 TYR A   2      15.742  21.862  44.996  0.00  0.00    +0.036 A 
ATOM     17  CZ  TYR A   2      15.810  23.140  44.496  0.00  0.00    +0.134 A 
ATOM     18  CE1 TYR A   2      14.746  23.674  43.793  0.00  0.00    +0.036 A 
ATOM     19  CD1 TYR A   2      13.606  22.921  43.600  0.00  0.00    -0.001 A 
BRANCH  17  20
ATOM     20  OH  TYR A   2      16.933  23.902  44.718  0.00  0.00    -0.506 OA
ATOM     21  HH  TYR A   2      17.065  24.016  45.692  0.00  0.00    +0.292 HD
ENDBRANCH  17  20
ENDBRANCH  13  14
ENDBRANCH   5  13
ENDBRANCH   1   5
BRANCH   3  22
ATOM     22  CA  THR A   3      13.196  18.851  47.641  0.00  0.00    +0.176 C 
BRANCH  22  23
ATOM     23  C   THR A   3      14.423  18.205  46.992  0.00  0.00    +0.243 C 
ATOM     24  N   THR A   4      15.538  18.180  47.718  0.00  0.00    -0.296 N 
ATOM     25  H   THR A   4      15.525  18.552  48.689  0.00  0.00    +0.150 HD
ATOM     26  O   THR A   3      14.359  17.743  45.846  0.00  0.00    -0.273 OA
BRANCH  24  27
ATOM     27  CA  THR A   4      16.779  17.638  47.173  0.00  0.00    +0.164 C 
BRANCH  27  28
ATOM     28  C   THR A   4      17.703  16.980  48.173  0.00  0.00    +0.229 C 
ATOM     29  O   THR A   4      18.045  15.803  48.033  0.00  0.00    -0.286 OA
ENDBRANCH  27  28
BRANCH  27  30
ATOM     30  CB  THR A   4      17.594  18.711  46.460  0.00  0.00    +0.136 C 
ATOM     31  CG2 THR A   4      17.085  18.901  45.076  0.00  0.00    +0.034 C 
BRANCH  30  32
ATOM     32  OG1 THR A   4      17.514  19.948  47.178  0.00  0.00    -0.382 OA
ATOM     33  HG1 THR A   4      18.046  20.637  46.707  0.00  0.00    +0.210 HD
ENDBRANCH  30  32
ENDBRANCH  27  30
ENDBRANCH  24  27
ENDBRANCH  22  23
BRANCH  22  34
ATOM     34  CB  THR A   3      12.539  17.816  48.584  0.00  0.00    +0.137 C 
ATOM     35  CG2 THR A   3      11.112  18.212  48.896  0.00  0.00    +0.034 C 
BRANCH  34  36
ATOM     36  OG1 THR A   3      12.544  16.526  47.962  0.00  0.00    -0.382 OA
ATOM     37  HG1 THR A   3      12.123  15.867  48.569  0.00  0.00    +0.210 HD
ENDBRANCH  34  36
ENDBRANCH  22  34
ENDBRANCH   3  22
TORSDOF 15
REMARK  Name = ../refined-set-2016/4i9h/4i9h_pocket.pdb
REMARK  282 active torsions:
REMARK  status: ('A' for Active; 'I' for Inactive)
REMARK    1  A    between atoms: _1  and  _3
REMARK    2  A    between atoms: _3  and  _4
REMARK    3  A    between atoms: _3  and  _6
REMARK    4  A    between atoms: _9  and  _11
REMARK    5  A    between atoms: _11  and  _12
REMARK    6  A    between atoms: _11  and  _14
REMARK    7  A    between atoms: _17  and  _19
REMARK    8  A    between atoms: _19  and  _20
REMARK    9  A    between atoms: _22  and  _24
REMARK   10  A    between atoms: _24  and  _25
REMARK   11  A    between atoms: _24  and  _27
REMARK   12  A    between atoms: _30  and  _32
REMARK   13  A    between atoms: _32  and  _33
REMARK   14  A    between atoms: _35  and  _37
REMARK   15  A    between atoms: _37  and  _38
REMARK   16  A    between atoms: _41  and  _43
REMARK   17  A    between atoms: _43  and  _44
REMARK   18  A    between atoms: _43  and  _46
REMARK   19  A    between atoms: _49  and  _51
REMARK   20  A    between atoms: _51  and  _52
REMARK   21  A    between atoms: _54  and  _56
REMARK   22  A    between atoms: _56  and  _57
REMARK   23  A    between atoms: _56  and  _59
REMARK   24  A    between atoms: _59  and  _60
REMARK   25  A    between atoms: _60  and  _61
REMARK   26  A    between atoms: _63  and  _65
REMARK   27  A    between atoms: _65  and  _66
REMARK   28  A    between atoms: _65  and  _68
REMARK   29  A    between atoms: _70  and  _72
REMARK   30  A    between atoms: _72  and  _73
REMARK   31  A    between atoms: _72  and  _75
REMARK   32  A    between atoms: _75  and  _76
REMARK   33  A    between atoms: _79  and  _81
REMARK   34  A    between atoms: _81  and  _82
REMARK   35  A    between atoms: _81  and  _84
REMARK   36  A    between atoms: _87  and  _89
REMARK   37  A    between atoms: _89  and  _90
REMARK   38  A    between atoms: _89  and  _92
REMARK   39  A    between atoms: _92  and  _93
REMARK   40  A    between atoms: _96  and  _98
REMARK   41  A    between atoms: _98  and  _99
REMARK   42  A    between atoms: _98  and  _101
REMARK   43  A    between atoms: _104  and  _106
REMARK   44  A    between atoms: _106  and  _107
REMARK   45  A    between atoms: _106  and  _109
REMARK   46  A    between atoms: _109  and  _110
REMARK   47  A    between atoms: _110  and  _111
REMARK   48  A    between atoms: _113  and  _115
REMARK   49  A    between atoms: _115  and  _116
REMARK   50  A    between atoms: _115  and  _118
REMARK   51  A    between atoms: _118  and  _119
REMARK   52  A    between atoms: _119  and  _120
REMARK   53  A    between atoms: _120  and  _121
REMARK   54  A    between atoms: _121  and  _122
REMARK   55  A    between atoms: _126  and  _128
REMARK   56  A    between atoms: _128  and  _129
REMARK   57  A    between atoms: _128  and  _131
REMARK   58  A    between atoms: _131  and  _132
REMARK   59  A    between atoms: _135  and  _137
REMARK   60  A    between atoms: _137  and  _138
REMARK   61  A    between atoms: _137  and  _140
REMARK   62  A    between atoms: _140  and  _141
REMARK   63  A    between atoms: _141  and  _142
REMARK   64  A    between atoms: _142  and  _143
REMARK   65  A    between atoms: _143  and  _144
REMARK   66  A    between atoms: _148  and  _150
REMARK   67  A    between atoms: _150  and  _151
REMARK   68  A    between atoms: _150  and  _153
REMARK   69  A    between atoms: _153  and  _154
REMARK   70  A    between atoms: _159  and  _160
REMARK   71  A    between atoms: _162  and  _164
REMARK   72  A    between atoms: _164  and  _165
REMARK   73  A    between atoms: _164  and  _167
REMARK   74  A    between atoms: _167  and  _168
REMARK   75  A    between atoms: _171  and  _173
REMARK   76  A    between atoms: _173  and  _174
REMARK   77  A    between atoms: _173  and  _176
REMARK   78  A    between atoms: _176  and  _177
REMARK   79  A    between atoms: _180  and  _182
REMARK   80  A    between atoms: _182  and  _183
REMARK   81  A    between atoms: _182  and  _185
REMARK   82  A    between atoms: _185  and  _186
REMARK   83  A    between atoms: _189  and  _191
REMARK   84  A    between atoms: _191  and  _192
REMARK   85  A    between atoms: _195  and  _197
REMARK   86  A    between atoms: _197  and  _198
REMARK   87  A    between atoms: _200  and  _202
REMARK   88  A    between atoms: _202  and  _203
REMARK   89  A    between atoms: _206  and  _208
REMARK   90  A    between atoms: _208  and  _209
REMARK   91  A    between atoms: _208  and  _211
REMARK   92  A    between atoms: _211  and  _212
REMARK   93  A    between atoms: _212  and  _213
REMARK   94  A    between atoms: _213  and  _214
REMARK   95  A    between atoms: _223  and  _225
REMARK   96  A    between atoms: _225  and  _226
REMARK   97  A    between atoms: _225  and  _228
REMARK   98  A    between atoms: _228  and  _229
REMARK   99  A    between atoms: _229  and  _230
REMARK  100  A    between atoms: _235  and  _237
REMARK  101  A    between atoms: _237  and  _238
REMARK  102  A    between atoms: _237  and  _240
REMARK  103  A    between atoms: _240  and  _241
REMARK  104  A    between atoms: _246  and  _248
REMARK  105  A    between atoms: _248  and  _249
REMARK  106  A    between atoms: _248  and  _251
REMARK  107  A    between atoms: _251  and  _252
REMARK  108  A    between atoms: _255  and  _257
REMARK  109  A    between atoms: _257  and  _258
REMARK  110  A    between atoms: _257  and  _260
REMARK  111  A    between atoms: _260  and  _261
REMARK  112  A    between atoms: _261  and  _262
REMARK  113  A    between atoms: _267  and  _269
REMARK  114  A    between atoms: _269  and  _270
REMARK  115  A    between atoms: _269  and  _272
REMARK  116  A    between atoms: _272  and  _273
REMARK  117  A    between atoms: _273  and  _274
REMARK  118  A    between atoms: _274  and  _275
REMARK  119  A    between atoms: _284  and  _286
REMARK  120  A    between atoms: _286  and  _287
REMARK  121  A    between atoms: _286  and  _289
REMARK  122  A    between atoms: _289  and  _290
REMARK  123  A    between atoms: _295  and  _297
REMARK  124  A    between atoms: _297  and  _298
REMARK  125  A    between atoms: _297  and  _300
REMARK  126  A    between atoms: _303  and  _305
REMARK  127  A    between atoms: _305  and  _306
REMARK  128  A    between atoms: _305  and  _308
REMARK  129  A    between atoms: _308  and  _309
REMARK  130  A    between atoms: _314  and  _316
REMARK  131  A    between atoms: _316  and  _317
REMARK  132  A    between atoms: _316  and  _319
REMARK  133  A    between atoms: _319  and  _320
REMARK  134  A    between atoms: _323  and  _325
REMARK  135  A    between atoms: _325  and  _326
REMARK  136  A    between atoms: _325  and  _328
REMARK  137  A    between atoms: _328  and  _329
REMARK  138  A    between atoms: _335  and  _337
REMARK  139  A    between atoms: _337  and  _338
REMARK  140  A    between atoms: _337  and  _340
REMARK  141  A    between atoms: _340  and  _341
REMARK  142  A    between atoms: _341  and  _342
REMARK  143  A    between atoms: _342  and  _343
REMARK  144  A    between atoms: _343  and  _344
REMARK  145  A    between atoms: _348  and  _350
REMARK  146  A    between atoms: _350  and  _351
REMARK  147  A    between atoms: _350  and  _353
REMARK  148  A    between atoms: _353  and  _354
REMARK  149  A    between atoms: _360  and  _362
REMARK  150  A    between atoms: _362  and  _363
REMARK  151  A    between atoms: _362  and  _365
REMARK  152  A    between atoms: _365  and  _366
REMARK  153  A    between atoms: _369  and  _371
REMARK  154  A    between atoms: _371  and  _372
REMARK  155  A    between atoms: _371  and  _374
REMARK  156  A    between atoms: _374  and  _375
REMARK  157  A    between atoms: _378  and  _380
REMARK  158  A    between atoms: _380  and  _381
REMARK  159  A    between atoms: _380  and  _383
REMARK  160  A    between atoms: _383  and  _384
REMARK  161  A    between atoms: _389  and  _391
REMARK  162  A    between atoms: _391  and  _392
REMARK  163  A    between atoms: _391  and  _394
REMARK  164  A    between atoms: _394  and  _395
REMARK  165  A    between atoms: _398  and  _400
REMARK  166  A    between atoms: _400  and  _401
REMARK  167  A    between atoms: _400  and  _403
REMARK  168  A    between atoms: _406  and  _408
REMARK  169  A    between atoms: _408  and  _409
REMARK  170  A    between atoms: _408  and  _411
REMARK  171  A    between atoms: _414  and  _416
REMARK  172  A    between atoms: _416  and  _417
REMARK  173  A    between atoms: _416  and  _419
REMARK  174  A    between atoms: _419  and  _420
REMARK  175  A    between atoms: _422  and  _424
REMARK  176  A    between atoms: _424  and  _425
REMARK  177  A    between atoms: _424  and  _427
REMARK  178  A    between atoms: _427  and  _428
REMARK  179  A    between atoms: _433  and  _435
REMARK  180  A    between atoms: _435  and  _436
REMARK  181  A    between atoms: _435  and  _438
REMARK  182  A    between atoms: _441  and  _443
REMARK  183  A    between atoms: _443  and  _444
REMARK  184  A    between atoms: _443  and  _446
REMARK  185  A    between atoms: _446  and  _447
REMARK  186  A    between atoms: _450  and  _452
REMARK  187  A    between atoms: _452  and  _453
REMARK  188  A    between atoms: _452  and  _455
REMARK  189  A    between atoms: _455  and  _456
REMARK  190  A    between atoms: _458  and  _460
REMARK  191  A    between atoms: _460  and  _461
REMARK  192  A    between atoms: _463  and  _465
REMARK  193  A    between atoms: _465  and  _466
REMARK  194  A    between atoms: _465  and  _468
REMARK  195  A    between atoms: _468  and  _469
REMARK  196  A    between atoms: _472  and  _474
REMARK  197  A    between atoms: _474  and  _475
REMARK  198  A    between atoms: _474  and  _477
REMARK  199  A    between atoms: _477  and  _478
REMARK  200  A    between atoms: _481  and  _483
REMARK  201  A    between atoms: _483  and  _484
REMARK  202  A    between atoms: _483  and  _486
REMARK  203  A    between atoms: _486  and  _487
REMARK  204  A    between atoms: _487  and  _488
REMARK  205  A    between atoms: _488  and  _489
REMARK  206  A    between atoms: _498  and  _500
REMARK  207  A    between atoms: _500  and  _501
REMARK  208  A    between atoms: _500  and  _503
REMARK  209  A    between atoms: _503  and  _504
REMARK  210  A    between atoms: _509  and  _511
REMARK  211  A    between atoms: _511  and  _512
REMARK  212  A    between atoms: _514  and  _516
REMARK  213  A    between atoms: _516  and  _517
REMARK  214  A    between atoms: _516  and  _519
REMARK  215  A    between atoms: _522  and  _524
REMARK  216  A    between atoms: _524  and  _525
REMARK  217  A    between atoms: _524  and  _527
REMARK  218  A    between atoms: _530  and  _532
REMARK  219  A    between atoms: _532  and  _533
REMARK  220  A    between atoms: _532  and  _535
REMARK  221  A    between atoms: _535  and  _536
REMARK  222  A    between atoms: _539  and  _541
REMARK  223  A    between atoms: _541  and  _542
REMARK  224  A    between atoms: _541  and  _544
REMARK  225  A    between atoms: _544  and  _545
REMARK  226  A    between atoms: _547  and  _549
REMARK  227  A    between atoms: _549  and  _550
REMARK  228  A    between atoms: _553  and  _555
REMARK  229  A    between atoms: _555  and  _556
REMARK  230  A    between atoms: _555  and  _558
REMARK  231  A    between atoms: _558  and  _559
REMARK  232  A    between atoms: _564  and  _565
REMARK  233  A    between atoms: _567  and  _569
REMARK  234  A    between atoms: _569  and  _570
REMARK  235  A    between atoms: _569  and  _572
REMARK  236  A    between atoms: _572  and  _573
REMARK  237  A    between atoms: _573  and  _574
REMARK  238  A    between atoms: _577  and  _579
REMARK  239  A    between atoms: _579  and  _580
REMARK  240  A    between atoms: _579  and  _582
REMARK  241  A    between atoms: _585  and  _587
REMARK  242  A    between atoms: _587  and  _588
REMARK  243  A    between atoms: _587  and  _590
REMARK  244  A    between atoms: _590  and  _591
REMARK  245  A    between atoms: _594  and  _596
REMARK  246  A    between atoms: _596  and  _597
REMARK  247  A    between atoms: _599  and  _601
REMARK  248  A    between atoms: _601  and  _602
REMARK  249  A    between atoms: _601  and  _604
REMARK  250  A    between atoms: _604  and  _605
REMARK  251  A    between atoms: _610  and  _611
REMARK  252  A    between atoms: _613  and  _615
REMARK  253  A    between atoms: _615  and  _616
REMARK  254  A    between atoms: _615  and  _618
REMARK  255  A    between atoms: _618  and  _619
REMARK  256  A    between atoms: _622  and  _624
REMARK  257  A    between atoms: _624  and  _625
REMARK  258  A    between atoms: _624  and  _627
REMARK  259  A    between atoms: _627  and  _628
REMARK  260  A    between atoms: _631  and  _633
REMARK  261  A    between atoms: _633  and  _634
REMARK  262  A    between atoms: _637  and  _639
REMARK  263  A    between atoms: _639  and  _640
REMARK  264  A    between atoms: _639  and  _642
REMARK  265  A    between atoms: _642  and  _643
REMARK  266  A    between atoms: _646  and  _648
REMARK  267  A    between atoms: _648  and  _649
REMARK  268  A    between atoms: _651  and  _653
REMARK  269  A    between atoms: _653  and  _654
REMARK  270  A    between atoms: _653  and  _656
REMARK  271  A    between atoms: _656  and  _657
REMARK  272  A    between atoms: _659  and  _661
REMARK  273  A    between atoms: _661  and  _662
REMARK  274  A    between atoms: _661  and  _664
REMARK  275  A    between atoms: _667  and  _669
REMARK  276  A    between atoms: _669  and  _670
REMARK  277  A    between atoms: _669  and  _672
REMARK  278  A    between atoms: _672  and  _673
REMARK  279  A    between atoms: _676  and  _678
REMARK  280  A    between atoms: _678  and  _679
REMARK  281  A    between atoms: _678  and  _681
REMARK  282  A    between atoms: _681  and  _682
REMARK                            x       y       z     vdW  Elec       q    Type
REMARK                         _______ _______ _______ _____ _____    ______ ____
ROOT
ATOM      1  CA  ILE A   2      16.339  12.559  49.326  0.00  0.00    +0.148 C 
ENDROOT
BRANCH   1   4
ATOM      2  C   ALA A   1      17.132  13.579  51.374  0.00  0.00    +0.238 C 
ATOM      3  O   ALA A   1      17.658  12.526  51.726  0.00  0.00    -0.274 OA
ATOM      4  N   ILE A   2      16.437  13.686  50.245  0.00  0.00    -0.297 N 
ATOM      5  H   ILE A   2      15.960  14.581  50.016  0.00  0.00    +0.150 HD
BRANCH   2   6
ATOM      6  CA  ALA A   1      17.272  14.837  52.230  0.00  0.00    +0.145 C 
ATOM      7  CB  ALA A   1      15.955  15.146  52.940  0.00  0.00    +0.028 C 
BRANCH   6   8
ATOM      8  N   ALA A   1      17.677  15.980  51.416  0.00  0.00    -0.238 NA
ATOM      9  H   ALA A   1      17.020  16.779  51.308  0.00  0.00    +0.142 HD
ENDBRANCH   6   8
ENDBRANCH   2   6
ENDBRANCH   1   4
BRANCH   1  10
ATOM     10  C   ILE A   2      17.730  12.123  48.842  0.00  0.00    +0.241 C 
ATOM     11  O   ILE A   2      18.022  10.925  48.759  0.00  0.00    -0.273 OA
ATOM     12  N   GLY A   3      18.594  13.094  48.553  0.00  0.00    -0.296 N 
ATOM     13  H   GLY A   3      18.300  14.088  48.638  0.00  0.00    +0.150 HD
BRANCH  12  14
ATOM     14  CA  GLY A   3      19.945  12.776  48.119  0.00  0.00    +0.163 C 
BRANCH  14  15
ATOM     15  C   GLY A   3      20.772  12.020  49.152  0.00  0.00    +0.229 C 
ATOM     16  O   GLY A   3      21.450  11.042  48.822  0.00  0.00    -0.286 OA
ENDBRANCH  14  15
ENDBRANCH  12  14
ENDBRANCH   1  10
BRANCH   1  17
ATOM     17  CB  ILE A   2      15.416  12.894  48.109  0.00  0.00    +0.027 C 
ATOM     18  CG2 ILE A   2      15.970  14.066  47.319  0.00  0.00    +0.002 C 
BRANCH  17  19
ATOM     19  CG1 ILE A   2      15.265  11.658  47.211  0.00  0.00    +0.002 C 
ATOM     20  CD1 ILE A   2      14.675  10.453  47.919  0.00  0.00    +0.000 C 
ENDBRANCH  17  19
ENDBRANCH   1  17
TORSDOF 8
REMARK  Name = ../refined-set-2016/4i9h/4i9h_pocket.pdb
REMARK  282 active torsions:
REMARK  status: ('A' for Active; 'I' for Inactive)
REMARK    1  A    between atoms: _1  and  _3
REMARK    2  A    between atoms: _3  and  _4
REMARK    3  A    between atoms: _3  and  _6
REMARK    4  A    between atoms: _9  and  _11
REMARK    5  A    between atoms: _11  and  _12
REMARK    6  A    between atoms: _11  and  _14
REMARK    7  A    between atoms: _17  and  _19
REMARK    8  A    between atoms: _19  and  _20
REMARK    9  A    between atoms: _22  and  _24
REMARK   10  A    between atoms: _24  and  _25
REMARK   11  A    between atoms: _24  and  _27
REMARK   12  A    between atoms: _30  and  _32
REMARK   13  A    between atoms: _32  and  _33
REMARK   14  A    between atoms: _35  and  _37
REMARK   15  A    between atoms: _37  and  _38
REMARK   16  A    between atoms: _41  and  _43
REMARK   17  A    between atoms: _43  and  _44
REMARK   18  A    between atoms: _43  and  _46
REMARK   19  A    between atoms: _49  and  _51
REMARK   20  A    between atoms: _51  and  _52
REMARK   21  A    between atoms: _54  and  _56
REMARK   22  A    between atoms: _56  and  _57
REMARK   23  A    between atoms: _56  and  _59
REMARK   24  A    between atoms: _59  and  _60
REMARK   25  A    between atoms: _60  and  _61
REMARK   26  A    between atoms: _63  and  _65
REMARK   27  A    between atoms: _65  and  _66
REMARK   28  A    between atoms: _65  and  _68
REMARK   29  A    between atoms: _70  and  _72
REMARK   30  A    between atoms: _72  and  _73
REMARK   31  A    between atoms: _72  and  _75
REMARK   32  A    between atoms: _75  and  _76
REMARK   33  A    between atoms: _79  and  _81
REMARK   34  A    between atoms: _81  and  _82
REMARK   35  A    between atoms: _81  and  _84
REMARK   36  A    between atoms: _87  and  _89
REMARK   37  A    between atoms: _89  and  _90
REMARK   38  A    between atoms: _89  and  _92
REMARK   39  A    between atoms: _92  and  _93
REMARK   40  A    between atoms: _96  and  _98
REMARK   41  A    between atoms: _98  and  _99
REMARK   42  A    between atoms: _98  and  _101
REMARK   43  A    between atoms: _104  and  _106
REMARK   44  A    between atoms: _106  and  _107
REMARK   45  A    between atoms: _106  and  _109
REMARK   46  A    between atoms: _109  and  _110
REMARK   47  A    between atoms: _110  and  _111
REMARK   48  A    between atoms: _113  and  _115
REMARK   49  A    between atoms: _115  and  _116
REMARK   50  A    between atoms: _115  and  _118
REMARK   51  A    between atoms: _118  and  _119
REMARK   52  A    between atoms: _119  and  _120
REMARK   53  A    between atoms: _120  and  _121
REMARK   54  A    between atoms: _121  and  _122
REMARK   55  A    between atoms: _126  and  _128
REMARK   56  A    between atoms: _128  and  _129
REMARK   57  A    between atoms: _128  and  _131
REMARK   58  A    between atoms: _131  and  _132
REMARK   59  A    between atoms: _135  and  _137
REMARK   60  A    between atoms: _137  and  _138
REMARK   61  A    between atoms: _137  and  _140
REMARK   62  A    between atoms: _140  and  _141
REMARK   63  A    between atoms: _141  and  _142
REMARK   64  A    between atoms: _142  and  _143
REMARK   65  A    between atoms: _143  and  _144
REMARK   66  A    between atoms: _148  and  _150
REMARK   67  A    between atoms: _150  and  _151
REMARK   68  A    between atoms: _150  and  _153
REMARK   69  A    between atoms: _153  and  _154
REMARK   70  A    between atoms: _159  and  _160
REMARK   71  A    between atoms: _162  and  _164
REMARK   72  A    between atoms: _164  and  _165
REMARK   73  A    between atoms: _164  and  _167
REMARK   74  A    between atoms: _167  and  _168
REMARK   75  A    between atoms: _171  and  _173
REMARK   76  A    between atoms: _173  and  _174
REMARK   77  A    between atoms: _173  and  _176
REMARK   78  A    between atoms: _176  and  _177
REMARK   79  A    between atoms: _180  and  _182
REMARK   80  A    between atoms: _182  and  _183
REMARK   81  A    between atoms: _182  and  _185
REMARK   82  A    between atoms: _185  and  _186
REMARK   83  A    between atoms: _189  and  _191
REMARK   84  A    between atoms: _191  and  _192
REMARK   85  A    between atoms: _195  and  _197
REMARK   86  A    between atoms: _197  and  _198
REMARK   87  A    between atoms: _200  and  _202
REMARK   88  A    between atoms: _202  and  _203
REMARK   89  A    between atoms: _206  and  _208
REMARK   90  A    between atoms: _208  and  _209
REMARK   91  A    between atoms: _208  and  _211
REMARK   92  A    between atoms: _211  and  _212
REMARK   93  A    between atoms: _212  and  _213
REMARK   94  A    between atoms: _213  and  _214
REMARK   95  A    between atoms: _223  and  _225
REMARK   96  A    between atoms: _225  and  _226
REMARK   97  A    between atoms: _225  and  _228
REMARK   98  A    between atoms: _228  and  _229
REMARK   99  A    between atoms: _229  and  _230
REMARK  100  A    between atoms: _235  and  _237
REMARK  101  A    between atoms: _237  and  _238
REMARK  102  A    between atoms: _237  and  _240
REMARK  103  A    between atoms: _240  and  _241
REMARK  104  A    between atoms: _246  and  _248
REMARK  105  A    between atoms: _248  and  _249
REMARK  106  A    between atoms: _248  and  _251
REMARK  107  A    between atoms: _251  and  _252
REMARK  108  A    between atoms: _255  and  _257
REMARK  109  A    between atoms: _257  and  _258
REMARK  110  A    between atoms: _257  and  _260
REMARK  111  A    between atoms: _260  and  _261
REMARK  112  A    between atoms: _261  and  _262
REMARK  113  A    between atoms: _267  and  _269
REMARK  114  A    between atoms: _269  and  _270
REMARK  115  A    between atoms: _269  and  _272
REMARK  116  A    between atoms: _272  and  _273
REMARK  117  A    between atoms: _273  and  _274
REMARK  118  A    between atoms: _274  and  _275
REMARK  119  A    between atoms: _284  and  _286
REMARK  120  A    between atoms: _286  and  _287
REMARK  121  A    between atoms: _286  and  _289
REMARK  122  A    between atoms: _289  and  _290
REMARK  123  A    between atoms: _295  and  _297
REMARK  124  A    between atoms: _297  and  _298
REMARK  125  A    between atoms: _297  and  _300
REMARK  126  A    between atoms: _303  and  _305
REMARK  127  A    between atoms: _305  and  _306
REMARK  128  A    between atoms: _305  and  _308
REMARK  129  A    between atoms: _308  and  _309
REMARK  130  A    between atoms: _314  and  _316
REMARK  131  A    between atoms: _316  and  _317
REMARK  132  A    between atoms: _316  and  _319
REMARK  133  A    between atoms: _319  and  _320
REMARK  134  A    between atoms: _323  and  _325
REMARK  135  A    between atoms: _325  and  _326
REMARK  136  A    between atoms: _325  and  _328
REMARK  137  A    between atoms: _328  and  _329
REMARK  138  A    between atoms: _335  and  _337
REMARK  139  A    between atoms: _337  and  _338
REMARK  140  A    between atoms: _337  and  _340
REMARK  141  A    between atoms: _340  and  _341
REMARK  142  A    between atoms: _341  and  _342
REMARK  143  A    between atoms: _342  and  _343
REMARK  144  A    between atoms: _343  and  _344
REMARK  145  A    between atoms: _348  and  _350
REMARK  146  A    between atoms: _350  and  _351
REMARK  147  A    between atoms: _350  and  _353
REMARK  148  A    between atoms: _353  and  _354
REMARK  149  A    between atoms: _360  and  _362
REMARK  150  A    between atoms: _362  and  _363
REMARK  151  A    between atoms: _362  and  _365
REMARK  152  A    between atoms: _365  and  _366
REMARK  153  A    between atoms: _369  and  _371
REMARK  154  A    between atoms: _371  and  _372
REMARK  155  A    between atoms: _371  and  _374
REMARK  156  A    between atoms: _374  and  _375
REMARK  157  A    between atoms: _378  and  _380
REMARK  158  A    between atoms: _380  and  _381
REMARK  159  A    between atoms: _380  and  _383
REMARK  160  A    between atoms: _383  and  _384
REMARK  161  A    between atoms: _389  and  _391
REMARK  162  A    between atoms: _391  and  _392
REMARK  163  A    between atoms: _391  and  _394
REMARK  164  A    between atoms: _394  and  _395
REMARK  165  A    between atoms: _398  and  _400
REMARK  166  A    between atoms: _400  and  _401
REMARK  167  A    between atoms: _400  and  _403
REMARK  168  A    between atoms: _406  and  _408
REMARK  169  A    between atoms: _408  and  _409
REMARK  170  A    between atoms: _408  and  _411
REMARK  171  A    between atoms: _414  and  _416
REMARK  172  A    between atoms: _416  and  _417
REMARK  173  A    between atoms: _416  and  _419
REMARK  174  A    between atoms: _419  and  _420
REMARK  175  A    between atoms: _422  and  _424
REMARK  176  A    between atoms: _424  and  _425
REMARK  177  A    between atoms: _424  and  _427
REMARK  178  A    between atoms: _427  and  _428
REMARK  179  A    between atoms: _433  and  _435
REMARK  180  A    between atoms: _435  and  _436
REMARK  181  A    between atoms: _435  and  _438
REMARK  182  A    between atoms: _441  and  _443
REMARK  183  A    between atoms: _443  and  _444
REMARK  184  A    between atoms: _443  and  _446
REMARK  185  A    between atoms: _446  and  _447
REMARK  186  A    between atoms: _450  and  _452
REMARK  187  A    between atoms: _452  and  _453
REMARK  188  A    between atoms: _452  and  _455
REMARK  189  A    between atoms: _455  and  _456
REMARK  190  A    between atoms: _458  and  _460
REMARK  191  A    between atoms: _460  and  _461
REMARK  192  A    between atoms: _463  and  _465
REMARK  193  A    between atoms: _465  and  _466
REMARK  194  A    between atoms: _465  and  _468
REMARK  195  A    between atoms: _468  and  _469
REMARK  196  A    between atoms: _472  and  _474
REMARK  197  A    between atoms: _474  and  _475
REMARK  198  A    between atoms: _474  and  _477
REMARK  199  A    between atoms: _477  and  _478
REMARK  200  A    between atoms: _481  and  _483
REMARK  201  A    between atoms: _483  and  _484
REMARK  202  A    between atoms: _483  and  _486
REMARK  203  A    between atoms: _486  and  _487
REMARK  204  A    between atoms: _487  and  _488
REMARK  205  A    between atoms: _488  and  _489
REMARK  206  A    between atoms: _498  and  _500
REMARK  207  A    between atoms: _500  and  _501
REMARK  208  A    between atoms: _500  and  _503
REMARK  209  A    between atoms: _503  and  _504
REMARK  210  A    between atoms: _509  and  _511
REMARK  211  A    between atoms: _511  and  _512
REMARK  212  A    between atoms: _514  and  _516
REMARK  213  A    between atoms: _516  and  _517
REMARK  214  A    between atoms: _516  and  _519
REMARK  215  A    between atoms: _522  and  _524
REMARK  216  A    between atoms: _524  and  _525
REMARK  217  A    between atoms: _524  and  _527
REMARK  218  A    between atoms: _530  and  _532
REMARK  219  A    between atoms: _532  and  _533
REMARK  220  A    between atoms: _532  and  _535
REMARK  221  A    between atoms: _535  and  _536
REMARK  222  A    between atoms: _539  and  _541
REMARK  223  A    between atoms: _541  and  _542
REMARK  224  A    between atoms: _541  and  _544
REMARK  225  A    between atoms: _544  and  _545
REMARK  226  A    between atoms: _547  and  _549
REMARK  227  A    between atoms: _549  and  _550
REMARK  228  A    between atoms: _553  and  _555
REMARK  229  A    between atoms: _555  and  _556
REMARK  230  A    between atoms: _555  and  _558
REMARK  231  A    between atoms: _558  and  _559
REMARK  232  A    between atoms: _564  and  _565
REMARK  233  A    between atoms: _567  and  _569
REMARK  234  A    between atoms: _569  and  _570
REMARK  235  A    between atoms: _569  and  _572
REMARK  236  A    between atoms: _572  and  _573
REMARK  237  A    between atoms: _573  and  _574
REMARK  238  A    between atoms: _577  and  _579
REMARK  239  A    between atoms: _579  and  _580
REMARK  240  A    between atoms: _579  and  _582
REMARK  241  A    between atoms: _585  and  _587
REMARK  242  A    between atoms: _587  and  _588
REMARK  243  A    between atoms: _587  and  _590
REMARK  244  A    between atoms: _590  and  _591
REMARK  245  A    between atoms: _594  and  _596
REMARK  246  A    between atoms: _596  and  _597
REMARK  247  A    between atoms: _599  and  _601
REMARK  248  A    between atoms: _601  and  _602
REMARK  249  A    between atoms: _601  and  _604
REMARK  250  A    between atoms: _604  and  _605
REMARK  251  A    between atoms: _610  and  _611
REMARK  252  A    between atoms: _613  and  _615
REMARK  253  A    between atoms: _615  and  _616
REMARK  254  A    between atoms: _615  and  _618
REMARK  255  A    between atoms: _618  and  _619
REMARK  256  A    between atoms: _622  and  _624
REMARK  257  A    between atoms: _624  and  _625
REMARK  258  A    between atoms: _624  and  _627
REMARK  259  A    between atoms: _627  and  _628
REMARK  260  A    between atoms: _631  and  _633
REMARK  261  A    between atoms: _633  and  _634
REMARK  262  A    between atoms: _637  and  _639
REMARK  263  A    between atoms: _639  and  _640
REMARK  264  A    between atoms: _639  and  _642
REMARK  265  A    between atoms: _642  and  _643
REMARK  266  A    between atoms: _646  and  _648
REMARK  267  A    between atoms: _648  and  _649
REMARK  268  A    between atoms: _651  and  _653
REMARK  269  A    between atoms: _653  and  _654
REMARK  270  A    between atoms: _653  and  _656
REMARK  271  A    between atoms: _656  and  _657
REMARK  272  A    between atoms: _659  and  _661
REMARK  273  A    between atoms: _661  and  _662
REMARK  274  A    between atoms: _661  and  _664
REMARK  275  A    between atoms: _667  and  _669
REMARK  276  A    between atoms: _669  and  _670
REMARK  277  A    between atoms: _669  and  _672
REMARK  278  A    between atoms: _672  and  _673
REMARK  279  A    between atoms: _676  and  _678
REMARK  280  A    between atoms: _678  and  _679
REMARK  281  A    between atoms: _678  and  _681
REMARK  282  A    between atoms: _681  and  _682
REMARK                            x       y       z     vdW  Elec       q    Type
REMARK                         _______ _______ _______ _____ _____    ______ ____
ROOT
ATOM      1  C   SER A   1      19.325   7.869  50.761  0.00  0.00    +0.241 C 
ATOM      2  O   SER A   1      19.490   6.682  51.026  0.00  0.00    -0.274 OA
ATOM      3  N   VAL A   2      19.484   8.359  49.539  0.00  0.00    -0.298 N 
ATOM      4  H   VAL A   2      19.311   9.370  49.368  0.00  0.00    +0.150 HD
ENDROOT
BRANCH   1   5
ATOM      5  CA  SER A   1      18.947   8.865  51.853  0.00  0.00    +0.174 C 
BRANCH   5   6
ATOM      6  N   SER A   1      19.548  10.180  51.602  0.00  0.00    -0.236 NA
ATOM      7  H   SER A   1      18.941  10.977  51.322  0.00  0.00    +0.142 HD
ENDBRANCH   5   6
BRANCH   5   8
ATOM      8  CB  SER A   1      17.420   8.969  51.952  0.00  0.00    +0.163 C 
BRANCH   8   9
ATOM      9  OG  SER A   1      16.841   9.383  50.731  0.00  0.00    -0.380 OA
ATOM     10  H   SER A   1      17.198  10.272  50.483  0.00  0.00    +0.211 HD
ENDBRANCH   8   9
ENDBRANCH   5   8
ENDBRANCH   1   5
BRANCH   3  11
ATOM     11  CA  VAL A   2      19.897   7.507  48.431  0.00  0.00    +0.137 C 
BRANCH  11  12
ATOM     12  CB  VAL A   2      19.647   8.209  47.081  0.00  0.00    +0.026 C 
ATOM     13  CG2 VAL A   2      18.137   8.346  46.851  0.00  0.00    +0.002 C 
ATOM     14  CG1 VAL A   2      20.293   7.417  45.941  0.00  0.00    +0.002 C 
ENDBRANCH  11  12
BRANCH  11  15
ATOM     15  C   VAL A   2      21.371   7.098  48.525  0.00  0.00    +0.227 C 
ATOM     16  O   VAL A   2      21.734   5.966  48.191  0.00  0.00    -0.286 OA
ENDBRANCH  11  15
ENDBRANCH   3  11
TORSDOF 7
REMARK  Name = ../refined-set-2016/4i9h/4i9h_pocket.pdb
REMARK  282 active torsions:
REMARK  status: ('A' for Active; 'I' for Inactive)
REMARK    1  A    between atoms: _1  and  _3
REMARK    2  A    between atoms: _3  and  _4
REMARK    3  A    between atoms: _3  and  _6
REMARK    4  A    between atoms: _9  and  _11
REMARK    5  A    between atoms: _11  and  _12
REMARK    6  A    between atoms: _11  and  _14
REMARK    7  A    between atoms: _17  and  _19
REMARK    8  A    between atoms: _19  and  _20
REMARK    9  A    between atoms: _22  and  _24
REMARK   10  A    between atoms: _24  and  _25
REMARK   11  A    between atoms: _24  and  _27
REMARK   12  A    between atoms: _30  and  _32
REMARK   13  A    between atoms: _32  and  _33
REMARK   14  A    between atoms: _35  and  _37
REMARK   15  A    between atoms: _37  and  _38
REMARK   16  A    between atoms: _41  and  _43
REMARK   17  A    between atoms: _43  and  _44
REMARK   18  A    between atoms: _43  and  _46
REMARK   19  A    between atoms: _49  and  _51
REMARK   20  A    between atoms: _51  and  _52
REMARK   21  A    between atoms: _54  and  _56
REMARK   22  A    between atoms: _56  and  _57
REMARK   23  A    between atoms: _56  and  _59
REMARK   24  A    between atoms: _59  and  _60
REMARK   25  A    between atoms: _60  and  _61
REMARK   26  A    between atoms: _63  and  _65
REMARK   27  A    between atoms: _65  and  _66
REMARK   28  A    between atoms: _65  and  _68
REMARK   29  A    between atoms: _70  and  _72
REMARK   30  A    between atoms: _72  and  _73
REMARK   31  A    between atoms: _72  and  _75
REMARK   32  A    between atoms: _75  and  _76
REMARK   33  A    between atoms: _79  and  _81
REMARK   34  A    between atoms: _81  and  _82
REMARK   35  A    between atoms: _81  and  _84
REMARK   36  A    between atoms: _87  and  _89
REMARK   37  A    between atoms: _89  and  _90
REMARK   38  A    between atoms: _89  and  _92
REMARK   39  A    between atoms: _92  and  _93
REMARK   40  A    between atoms: _96  and  _98
REMARK   41  A    between atoms: _98  and  _99
REMARK   42  A    between atoms: _98  and  _101
REMARK   43  A    between atoms: _104  and  _106
REMARK   44  A    between atoms: _106  and  _107
REMARK   45  A    between atoms: _106  and  _109
REMARK   46  A    between atoms: _109  and  _110
REMARK   47  A    between atoms: _110  and  _111
REMARK   48  A    between atoms: _113  and  _115
REMARK   49  A    between atoms: _115  and  _116
REMARK   50  A    between atoms: _115  and  _118
REMARK   51  A    between atoms: _118  and  _119
REMARK   52  A    between atoms: _119  and  _120
REMARK   53  A    between atoms: _120  and  _121
REMARK   54  A    between atoms: _121  and  _122
REMARK   55  A    between atoms: _126  and  _128
REMARK   56  A    between atoms: _128  and  _129
REMARK   57  A    between atoms: _128  and  _131
REMARK   58  A    between atoms: _131  and  _132
REMARK   59  A    between atoms: _135  and  _137
REMARK   60  A    between atoms: _137  and  _138
REMARK   61  A    between atoms: _137  and  _140
REMARK   62  A    between atoms: _140  and  _141
REMARK   63  A    between atoms: _141  and  _142
REMARK   64  A    between atoms: _142  and  _143
REMARK   65  A    between atoms: _143  and  _144
REMARK   66  A    between atoms: _148  and  _150
REMARK   67  A    between atoms: _150  and  _151
REMARK   68  A    between atoms: _150  and  _153
REMARK   69  A    between atoms: _153  and  _154
REMARK   70  A    between atoms: _159  and  _160
REMARK   71  A    between atoms: _162  and  _164
REMARK   72  A    between atoms: _164  and  _165
REMARK   73  A    between atoms: _164  and  _167
REMARK   74  A    between atoms: _167  and  _168
REMARK   75  A    between atoms: _171  and  _173
REMARK   76  A    between atoms: _173  and  _174
REMARK   77  A    between atoms: _173  and  _176
REMARK   78  A    between atoms: _176  and  _177
REMARK   79  A    between atoms: _180  and  _182
REMARK   80  A    between atoms: _182  and  _183
REMARK   81  A    between atoms: _182  and  _185
REMARK   82  A    between atoms: _185  and  _186
REMARK   83  A    between atoms: _189  and  _191
REMARK   84  A    between atoms: _191  and  _192
REMARK   85  A    between atoms: _195  and  _197
REMARK   86  A    between atoms: _197  and  _198
REMARK   87  A    between atoms: _200  and  _202
REMARK   88  A    between atoms: _202  and  _203
REMARK   89  A    between atoms: _206  and  _208
REMARK   90  A    between atoms: _208  and  _209
REMARK   91  A    between atoms: _208  and  _211
REMARK   92  A    between atoms: _211  and  _212
REMARK   93  A    between atoms: _212  and  _213
REMARK   94  A    between atoms: _213  and  _214
REMARK   95  A    between atoms: _223  and  _225
REMARK   96  A    between atoms: _225  and  _226
REMARK   97  A    between atoms: _225  and  _228
REMARK   98  A    between atoms: _228  and  _229
REMARK   99  A    between atoms: _229  and  _230
REMARK  100  A    between atoms: _235  and  _237
REMARK  101  A    between atoms: _237  and  _238
REMARK  102  A    between atoms: _237  and  _240
REMARK  103  A    between atoms: _240  and  _241
REMARK  104  A    between atoms: _246  and  _248
REMARK  105  A    between atoms: _248  and  _249
REMARK  106  A    between atoms: _248  and  _251
REMARK  107  A    between atoms: _251  and  _252
REMARK  108  A    between atoms: _255  and  _257
REMARK  109  A    between atoms: _257  and  _258
REMARK  110  A    between atoms: _257  and  _260
REMARK  111  A    between atoms: _260  and  _261
REMARK  112  A    between atoms: _261  and  _262
REMARK  113  A    between atoms: _267  and  _269
REMARK  114  A    between atoms: _269  and  _270
REMARK  115  A    between atoms: _269  and  _272
REMARK  116  A    between atoms: _272  and  _273
REMARK  117  A    between atoms: _273  and  _274
REMARK  118  A    between atoms: _274  and  _275
REMARK  119  A    between atoms: _284  and  _286
REMARK  120  A    between atoms: _286  and  _287
REMARK  121  A    between atoms: _286  and  _289
REMARK  122  A    between atoms: _289  and  _290
REMARK  123  A    between atoms: _295  and  _297
REMARK  124  A    between atoms: _297  and  _298
REMARK  125  A    between atoms: _297  and  _300
REMARK  126  A    between atoms: _303  and  _305
REMARK  127  A    between atoms: _305  and  _306
REMARK  128  A    between atoms: _305  and  _308
REMARK  129  A    between atoms: _308  and  _309
REMARK  130  A    between atoms: _314  and  _316
REMARK  131  A    between atoms: _316  and  _317
REMARK  132  A    between atoms: _316  and  _319
REMARK  133  A    between atoms: _319  and  _320
REMARK  134  A    between atoms: _323  and  _325
REMARK  135  A    between atoms: _325  and  _326
REMARK  136  A    between atoms: _325  and  _328
REMARK  137  A    between atoms: _328  and  _329
REMARK  138  A    between atoms: _335  and  _337
REMARK  139  A    between atoms: _337  and  _338
REMARK  140  A    between atoms: _337  and  _340
REMARK  141  A    between atoms: _340  and  _341
REMARK  142  A    between atoms: _341  and  _342
REMARK  143  A    between atoms: _342  and  _343
REMARK  144  A    between atoms: _343  and  _344
REMARK  145  A    between atoms: _348  and  _350
REMARK  146  A    between atoms: _350  and  _351
REMARK  147  A    between atoms: _350  and  _353
REMARK  148  A    between atoms: _353  and  _354
REMARK  149  A    between atoms: _360  and  _362
REMARK  150  A    between atoms: _362  and  _363
REMARK  151  A    between atoms: _362  and  _365
REMARK  152  A    between atoms: _365  and  _366
REMARK  153  A    between atoms: _369  and  _371
REMARK  154  A    between atoms: _371  and  _372
REMARK  155  A    between atoms: _371  and  _374
REMARK  156  A    between atoms: _374  and  _375
REMARK  157  A    between atoms: _378  and  _380
REMARK  158  A    between atoms: _380  and  _381
REMARK  159  A    between atoms: _380  and  _383
REMARK  160  A    between atoms: _383  and  _384
REMARK  161  A    between atoms: _389  and  _391
REMARK  162  A    between atoms: _391  and  _392
REMARK  163  A    between atoms: _391  and  _394
REMARK  164  A    between atoms: _394  and  _395
REMARK  165  A    between atoms: _398  and  _400
REMARK  166  A    between atoms: _400  and  _401
REMARK  167  A    between atoms: _400  and  _403
REMARK  168  A    between atoms: _406  and  _408
REMARK  169  A    between atoms: _408  and  _409
REMARK  170  A    between atoms: _408  and  _411
REMARK  171  A    between atoms: _414  and  _416
REMARK  172  A    between atoms: _416  and  _417
REMARK  173  A    between atoms: _416  and  _419
REMARK  174  A    between atoms: _419  and  _420
REMARK  175  A    between atoms: _422  and  _424
REMARK  176  A    between atoms: _424  and  _425
REMARK  177  A    between atoms: _424  and  _427
REMARK  178  A    between atoms: _427  and  _428
REMARK  179  A    between atoms: _433  and  _435
REMARK  180  A    between atoms: _435  and  _436
REMARK  181  A    between atoms: _435  and  _438
REMARK  182  A    between atoms: _441  and  _443
REMARK  183  A    between atoms: _443  and  _444
REMARK  184  A    between atoms: _443  and  _446
REMARK  185  A    between atoms: _446  and  _447
REMARK  186  A    between atoms: _450  and  _452
REMARK  187  A    between atoms: _452  and  _453
REMARK  188  A    between atoms: _452  and  _455
REMARK  189  A    between atoms: _455  and  _456
REMARK  190  A    between atoms: _458  and  _460
REMARK  191  A    between atoms: _460  and  _461
REMARK  192  A    between atoms: _463  and  _465
REMARK  193  A    between atoms: _465  and  _466
REMARK  194  A    between atoms: _465  and  _468
REMARK  195  A    between atoms: _468  and  _469
REMARK  196  A    between atoms: _472  and  _474
REMARK  197  A    between atoms: _474  and  _475
REMARK  198  A    between atoms: _474  and  _477
REMARK  199  A    between atoms: _477  and  _478
REMARK  200  A    between atoms: _481  and  _483
REMARK  201  A    between atoms: _483  and  _484
REMARK  202  A    between atoms: _483  and  _486
REMARK  203  A    between atoms: _486  and  _487
REMARK  204  A    between atoms: _487  and  _488
REMARK  205  A    between atoms: _488  and  _489
REMARK  206  A    between atoms: _498  and  _500
REMARK  207  A    between atoms: _500  and  _501
REMARK  208  A    between atoms: _500  and  _503
REMARK  209  A    between atoms: _503  and  _504
REMARK  210  A    between atoms: _509  and  _511
REMARK  211  A    between atoms: _511  and  _512
REMARK  212  A    between atoms: _514  and  _516
REMARK  213  A    between atoms: _516  and  _517
REMARK  214  A    between atoms: _516  and  _519
REMARK  215  A    between atoms: _522  and  _524
REMARK  216  A    between atoms: _524  and  _525
REMARK  217  A    between atoms: _524  and  _527
REMARK  218  A    between atoms: _530  and  _532
REMARK  219  A    between atoms: _532  and  _533
REMARK  220  A    between atoms: _532  and  _535
REMARK  221  A    between atoms: _535  and  _536
REMARK  222  A    between atoms: _539  and  _541
REMARK  223  A    between atoms: _541  and  _542
REMARK  224  A    between atoms: _541  and  _544
REMARK  225  A    between atoms: _544  and  _545
REMARK  226  A    between atoms: _547  and  _549
REMARK  227  A    between atoms: _549  and  _550
REMARK  228  A    between atoms: _553  and  _555
REMARK  229  A    between atoms: _555  and  _556
REMARK  230  A    between atoms: _555  and  _558
REMARK  231  A    between atoms: _558  and  _559
REMARK  232  A    between atoms: _564  and  _565
REMARK  233  A    between atoms: _567  and  _569
REMARK  234  A    between atoms: _569  and  _570
REMARK  235  A    between atoms: _569  and  _572
REMARK  236  A    between atoms: _572  and  _573
REMARK  237  A    between atoms: _573  and  _574
REMARK  238  A    between atoms: _577  and  _579
REMARK  239  A    between atoms: _579  and  _580
REMARK  240  A    between atoms: _579  and  _582
REMARK  241  A    between atoms: _585  and  _587
REMARK  242  A    between atoms: _587  and  _588
REMARK  243  A    between atoms: _587  and  _590
REMARK  244  A    between atoms: _590  and  _591
REMARK  245  A    between atoms: _594  and  _596
REMARK  246  A    between atoms: _596  and  _597
REMARK  247  A    between atoms: _599  and  _601
REMARK  248  A    between atoms: _601  and  _602
REMARK  249  A    between atoms: _601  and  _604
REMARK  250  A    between atoms: _604  and  _605
REMARK  251  A    between atoms: _610  and  _611
REMARK  252  A    between atoms: _613  and  _615
REMARK  253  A    between atoms: _615  and  _616
REMARK  254  A    between atoms: _615  and  _618
REMARK  255  A    between atoms: _618  and  _619
REMARK  256  A    between atoms: _622  and  _624
REMARK  257  A    between atoms: _624  and  _625
REMARK  258  A    between atoms: _624  and  _627
REMARK  259  A    between atoms: _627  and  _628
REMARK  260  A    between atoms: _631  and  _633
REMARK  261  A    between atoms: _633  and  _634
REMARK  262  A    between atoms: _637  and  _639
REMARK  263  A    between atoms: _639  and  _640
REMARK  264  A    between atoms: _639  and  _642
REMARK  265  A    between atoms: _642  and  _643
REMARK  266  A    between atoms: _646  and  _648
REMARK  267  A    between atoms: _648  and  _649
REMARK  268  A    between atoms: _651  and  _653
REMARK  269  A    between atoms: _653  and  _654
REMARK  270  A    between atoms: _653  and  _656
REMARK  271  A    between atoms: _656  and  _657
REMARK  272  A    between atoms: _659  and  _661
REMARK  273  A    between atoms: _661  and  _662
REMARK  274  A    between atoms: _661  and  _664
REMARK  275  A    between atoms: _667  and  _669
REMARK  276  A    between atoms: _669  and  _670
REMARK  277  A    between atoms: _669  and  _672
REMARK  278  A    between atoms: _672  and  _673
REMARK  279  A    between atoms: _676  and  _678
REMARK  280  A    between atoms: _678  and  _679
REMARK  281  A    between atoms: _678  and  _681
REMARK  282  A    between atoms: _681  and  _682
REMARK                            x       y       z     vdW  Elec       q    Type
REMARK                         _______ _______ _______ _____ _____    ______ ____
ROOT
ATOM      1  CA  ASP A   1      15.186  19.719  53.690  0.00  0.00    +0.144 C 
ENDROOT
BRANCH   1   2
ATOM      2  N   ASP A   1      14.660  20.766  54.571  0.00  0.00    -0.239 NA
ATOM      3  H   ASP A   1      14.565  21.732  54.197  0.00  0.00    +0.142 HD
ENDBRANCH   1   2
BRANCH   1   4
ATOM      4  C   ASP A   1      16.456  19.149  54.328  0.00  0.00    +0.225 C 
ATOM      5  O   ASP A   1      16.600  17.936  54.465  0.00  0.00    -0.287 OA
ENDBRANCH   1   4
BRANCH   1   6
ATOM      6  CB  ASP A   1      15.510  20.311  52.307  0.00  0.00    +0.139 C 
BRANCH   6   7
ATOM      7  CG  ASP A   1      15.459  19.277  51.176  0.00  0.00    +0.367 C 
ATOM      8  OD2 ASP A   1      15.215  18.068  51.428  0.00  0.00    -0.246 OA
ATOM      9  OD1 ASP A   1      15.665  19.694  50.012  0.00  0.00    -0.246 OA
ENDBRANCH   6   7
ENDBRANCH   1   6
TORSDOF 4
REMARK  Name = ../refined-set-2016/4i9h/4i9h_pocket.pdb
REMARK  282 active torsions:
REMARK  status: ('A' for Active; 'I' for Inactive)
REMARK    1  A    between atoms: _1  and  _3
REMARK    2  A    between atoms: _3  and  _4
REMARK    3  A    between atoms: _3  and  _6
REMARK    4  A    between atoms: _9  and  _11
REMARK    5  A    between atoms: _11  and  _12
REMARK    6  A    between atoms: _11  and  _14
REMARK    7  A    between atoms: _17  and  _19
REMARK    8  A    between atoms: _19  and  _20
REMARK    9  A    between atoms: _22  and  _24
REMARK   10  A    between atoms: _24  and  _25
REMARK   11  A    between atoms: _24  and  _27
REMARK   12  A    between atoms: _30  and  _32
REMARK   13  A    between atoms: _32  and  _33
REMARK   14  A    between atoms: _35  and  _37
REMARK   15  A    between atoms: _37  and  _38
REMARK   16  A    between atoms: _41  and  _43
REMARK   17  A    between atoms: _43  and  _44
REMARK   18  A    between atoms: _43  and  _46
REMARK   19  A    between atoms: _49  and  _51
REMARK   20  A    between atoms: _51  and  _52
REMARK   21  A    between atoms: _54  and  _56
REMARK   22  A    between atoms: _56  and  _57
REMARK   23  A    between atoms: _56  and  _59
REMARK   24  A    between atoms: _59  and  _60
REMARK   25  A    between atoms: _60  and  _61
REMARK   26  A    between atoms: _63  and  _65
REMARK   27  A    between atoms: _65  and  _66
REMARK   28  A    between atoms: _65  and  _68
REMARK   29  A    between atoms: _70  and  _72
REMARK   30  A    between atoms: _72  and  _73
REMARK   31  A    between atoms: _72  and  _75
REMARK   32  A    between atoms: _75  and  _76
REMARK   33  A    between atoms: _79  and  _81
REMARK   34  A    between atoms: _81  and  _82
REMARK   35  A    between atoms: _81  and  _84
REMARK   36  A    between atoms: _87  and  _89
REMARK   37  A    between atoms: _89  and  _90
REMARK   38  A    between atoms: _89  and  _92
REMARK   39  A    between atoms: _92  and  _93
REMARK   40  A    between atoms: _96  and  _98
REMARK   41  A    between atoms: _98  and  _99
REMARK   42  A    between atoms: _98  and  _101
REMARK   43  A    between atoms: _104  and  _106
REMARK   44  A    between atoms: _106  and  _107
REMARK   45  A    between atoms: _106  and  _109
REMARK   46  A    between atoms: _109  and  _110
REMARK   47  A    between atoms: _110  and  _111
REMARK   48  A    between atoms: _113  and  _115
REMARK   49  A    between atoms: _115  and  _116
REMARK   50  A    between atoms: _115  and  _118
REMARK   51  A    between atoms: _118  and  _119
REMARK   52  A    between atoms: _119  and  _120
REMARK   53  A    between atoms: _120  and  _121
REMARK   54  A    between atoms: _121  and  _122
REMARK   55  A    between atoms: _126  and  _128
REMARK   56  A    between atoms: _128  and  _129
REMARK   57  A    between atoms: _128  and  _131
REMARK   58  A    between atoms: _131  and  _132
REMARK   59  A    between atoms: _135  and  _137
REMARK   60  A    between atoms: _137  and  _138
REMARK   61  A    between atoms: _137  and  _140
REMARK   62  A    between atoms: _140  and  _141
REMARK   63  A    between atoms: _141  and  _142
REMARK   64  A    between atoms: _142  and  _143
REMARK   65  A    between atoms: _143  and  _144
REMARK   66  A    between atoms: _148  and  _150
REMARK   67  A    between atoms: _150  and  _151
REMARK   68  A    between atoms: _150  and  _153
REMARK   69  A    between atoms: _153  and  _154
REMARK   70  A    between atoms: _159  and  _160
REMARK   71  A    between atoms: _162  and  _164
REMARK   72  A    between atoms: _164  and  _165
REMARK   73  A    between atoms: _164  and  _167
REMARK   74  A    between atoms: _167  and  _168
REMARK   75  A    between atoms: _171  and  _173
REMARK   76  A    between atoms: _173  and  _174
REMARK   77  A    between atoms: _173  and  _176
REMARK   78  A    between atoms: _176  and  _177
REMARK   79  A    between atoms: _180  and  _182
REMARK   80  A    between atoms: _182  and  _183
REMARK   81  A    between atoms: _182  and  _185
REMARK   82  A    between atoms: _185  and  _186
REMARK   83  A    between atoms: _189  and  _191
REMARK   84  A    between atoms: _191  and  _192
REMARK   85  A    between atoms: _195  and  _197
REMARK   86  A    between atoms: _197  and  _198
REMARK   87  A    between atoms: _200  and  _202
REMARK   88  A    between atoms: _202  and  _203
REMARK   89  A    between atoms: _206  and  _208
REMARK   90  A    between atoms: _208  and  _209
REMARK   91  A    between atoms: _208  and  _211
REMARK   92  A    between atoms: _211  and  _212
REMARK   93  A    between atoms: _212  and  _213
REMARK   94  A    between atoms: _213  and  _214
REMARK   95  A    between atoms: _223  and  _225
REMARK   96  A    between atoms: _225  and  _226
REMARK   97  A    between atoms: _225  and  _228
REMARK   98  A    between atoms: _228  and  _229
REMARK   99  A    between atoms: _229  and  _230
REMARK  100  A    between atoms: _235  and  _237
REMARK  101  A    between atoms: _237  and  _238
REMARK  102  A    between atoms: _237  and  _240
REMARK  103  A    between atoms: _240  and  _241
REMARK  104  A    between atoms: _246  and  _248
REMARK  105  A    between atoms: _248  and  _249
REMARK  106  A    between atoms: _248  and  _251
REMARK  107  A    between atoms: _251  and  _252
REMARK  108  A    between atoms: _255  and  _257
REMARK  109  A    between atoms: _257  and  _258
REMARK  110  A    between atoms: _257  and  _260
REMARK  111  A    between atoms: _260  and  _261
REMARK  112  A    between atoms: _261  and  _262
REMARK  113  A    between atoms: _267  and  _269
REMARK  114  A    between atoms: _269  and  _270
REMARK  115  A    between atoms: _269  and  _272
REMARK  116  A    between atoms: _272  and  _273
REMARK  117  A    between atoms: _273  and  _274
REMARK  118  A    between atoms: _274  and  _275
REMARK  119  A    between atoms: _284  and  _286
REMARK  120  A    between atoms: _286  and  _287
REMARK  121  A    between atoms: _286  and  _289
REMARK  122  A    between atoms: _289  and  _290
REMARK  123  A    between atoms: _295  and  _297
REMARK  124  A    between atoms: _297  and  _298
REMARK  125  A    between atoms: _297  and  _300
REMARK  126  A    between atoms: _303  and  _305
REMARK  127  A    between atoms: _305  and  _306
REMARK  128  A    between atoms: _305  and  _308
REMARK  129  A    between atoms: _308  and  _309
REMARK  130  A    between atoms: _314  and  _316
REMARK  131  A    between atoms: _316  and  _317
REMARK  132  A    between atoms: _316  and  _319
REMARK  133  A    between atoms: _319  and  _320
REMARK  134  A    between atoms: _323  and  _325
REMARK  135  A    between atoms: _325  and  _326
REMARK  136  A    between atoms: _325  and  _328
REMARK  137  A    between atoms: _328  and  _329
REMARK  138  A    between atoms: _335  and  _337
REMARK  139  A    between atoms: _337  and  _338
REMARK  140  A    between atoms: _337  and  _340
REMARK  141  A    between atoms: _340  and  _341
REMARK  142  A    between atoms: _341  and  _342
REMARK  143  A    between atoms: _342  and  _343
REMARK  144  A    between atoms: _343  and  _344
REMARK  145  A    between atoms: _348  and  _350
REMARK  146  A    between atoms: _350  and  _351
REMARK  147  A    between atoms: _350  and  _353
REMARK  148  A    between atoms: _353  and  _354
REMARK  149  A    between atoms: _360  and  _362
REMARK  150  A    between atoms: _362  and  _363
REMARK  151  A    between atoms: _362  and  _365
REMARK  152  A    between atoms: _365  and  _366
REMARK  153  A    between atoms: _369  and  _371
REMARK  154  A    between atoms: _371  and  _372
REMARK  155  A    between atoms: _371  and  _374
REMARK  156  A    between atoms: _374  and  _375
REMARK  157  A    between atoms: _378  and  _380
REMARK  158  A    between atoms: _380  and  _381
REMARK  159  A    between atoms: _380  and  _383
REMARK  160  A    between atoms: _383  and  _384
REMARK  161  A    between atoms: _389  and  _391
REMARK  162  A    between atoms: _391  and  _392
REMARK  163  A    between atoms: _391  and  _394
REMARK  164  A    between atoms: _394  and  _395
REMARK  165  A    between atoms: _398  and  _400
REMARK  166  A    between atoms: _400  and  _401
REMARK  167  A    between atoms: _400  and  _403
REMARK  168  A    between atoms: _406  and  _408
REMARK  169  A    between atoms: _408  and  _409
REMARK  170  A    between atoms: _408  and  _411
REMARK  171  A    between atoms: _414  and  _416
REMARK  172  A    between atoms: _416  and  _417
REMARK  173  A    between atoms: _416  and  _419
REMARK  174  A    between atoms: _419  and  _420
REMARK  175  A    between atoms: _422  and  _424
REMARK  176  A    between atoms: _424  and  _425
REMARK  177  A    between atoms: _424  and  _427
REMARK  178  A    between atoms: _427  and  _428
REMARK  179  A    between atoms: _433  and  _435
REMARK  180  A    between atoms: _435  and  _436
REMARK  181  A    between atoms: _435  and  _438
REMARK  182  A    between atoms: _441  and  _443
REMARK  183  A    between atoms: _443  and  _444
REMARK  184  A    between atoms: _443  and  _446
REMARK  185  A    between atoms: _446  and  _447
REMARK  186  A    between atoms: _450  and  _452
REMARK  187  A    between atoms: _452  and  _453
REMARK  188  A    between atoms: _452  and  _455
REMARK  189  A    between atoms: _455  and  _456
REMARK  190  A    between atoms: _458  and  _460
REMARK  191  A    between atoms: _460  and  _461
REMARK  192  A    between atoms: _463  and  _465
REMARK  193  A    between atoms: _465  and  _466
REMARK  194  A    between atoms: _465  and  _468
REMARK  195  A    between atoms: _468  and  _469
REMARK  196  A    between atoms: _472  and  _474
REMARK  197  A    between atoms: _474  and  _475
REMARK  198  A    between atoms: _474  and  _477
REMARK  199  A    between atoms: _477  and  _478
REMARK  200  A    between atoms: _481  and  _483
REMARK  201  A    between atoms: _483  and  _484
REMARK  202  A    between atoms: _483  and  _486
REMARK  203  A    between atoms: _486  and  _487
REMARK  204  A    between atoms: _487  and  _488
REMARK  205  A    between atoms: _488  and  _489
REMARK  206  A    between atoms: _498  and  _500
REMARK  207  A    between atoms: _500  and  _501
REMARK  208  A    between atoms: _500  and  _503
REMARK  209  A    between atoms: _503  and  _504
REMARK  210  A    between atoms: _509  and  _511
REMARK  211  A    between atoms: _511  and  _512
REMARK  212  A    between atoms: _514  and  _516
REMARK  213  A    between atoms: _516  and  _517
REMARK  214  A    between atoms: _516  and  _519
REMARK  215  A    between atoms: _522  and  _524
REMARK  216  A    between atoms: _524  and  _525
REMARK  217  A    between atoms: _524  and  _527
REMARK  218  A    between atoms: _530  and  _532
REMARK  219  A    between atoms: _532  and  _533
REMARK  220  A    between atoms: _532  and  _535
REMARK  221  A    between atoms: _535  and  _536
REMARK  222  A    between atoms: _539  and  _541
REMARK  223  A    between atoms: _541  and  _542
REMARK  224  A    between atoms: _541  and  _544
REMARK  225  A    between atoms: _544  and  _545
REMARK  226  A    between atoms: _547  and  _549
REMARK  227  A    between atoms: _549  and  _550
REMARK  228  A    between atoms: _553  and  _555
REMARK  229  A    between atoms: _555  and  _556
REMARK  230  A    between atoms: _555  and  _558
REMARK  231  A    between atoms: _558  and  _559
REMARK  232  A    between atoms: _564  and  _565
REMARK  233  A    between atoms: _567  and  _569
REMARK  234  A    between atoms: _569  and  _570
REMARK  235  A    between atoms: _569  and  _572
REMARK  236  A    between atoms: _572  and  _573
REMARK  237  A    between atoms: _573  and  _574
REMARK  238  A    between atoms: _577  and  _579
REMARK  239  A    between atoms: _579  and  _580
REMARK  240  A    between atoms: _579  and  _582
REMARK  241  A    between atoms: _585  and  _587
REMARK  242  A    between atoms: _587  and  _588
REMARK  243  A    between atoms: _587  and  _590
REMARK  244  A    between atoms: _590  and  _591
REMARK  245  A    between atoms: _594  and  _596
REMARK  246  A    between atoms: _596  and  _597
REMARK  247  A    between atoms: _599  and  _601
REMARK  248  A    between atoms: _601  and  _602
REMARK  249  A    between atoms: _601  and  _604
REMARK  250  A    between atoms: _604  and  _605
REMARK  251  A    between atoms: _610  and  _611
REMARK  252  A    between atoms: _613  and  _615
REMARK  253  A    between atoms: _615  and  _616
REMARK  254  A    between atoms: _615  and  _618
REMARK  255  A    between atoms: _618  and  _619
REMARK  256  A    between atoms: _622  and  _624
REMARK  257  A    between atoms: _624  and  _625
REMARK  258  A    between atoms: _624  and  _627
REMARK  259  A    between atoms: _627  and  _628
REMARK  260  A    between atoms: _631  and  _633
REMARK  261  A    between atoms: _633  and  _634
REMARK  262  A    between atoms: _637  and  _639
REMARK  263  A    between atoms: _639  and  _640
REMARK  264  A    between atoms: _639  and  _642
REMARK  265  A    between atoms: _642  and  _643
REMARK  266  A    between atoms: _646  and  _648
REMARK  267  A    between atoms: _648  and  _649
REMARK  268  A    between atoms: _651  and  _653
REMARK  269  A    between atoms: _653  and  _654
REMARK  270  A    between atoms: _653  and  _656
REMARK  271  A    between atoms: _656  and  _657
REMARK  272  A    between atoms: _659  and  _661
REMARK  273  A    between atoms: _661  and  _662
REMARK  274  A    between atoms: _661  and  _664
REMARK  275  A    between atoms: _667  and  _669
REMARK  276  A    between atoms: _669  and  _670
REMARK  277  A    between atoms: _669  and  _672
REMARK  278  A    between atoms: _672  and  _673
REMARK  279  A    between atoms: _676  and  _678
REMARK  280  A    between atoms: _678  and  _679
REMARK  281  A    between atoms: _678  and  _681
REMARK  282  A    between atoms: _681  and  _682
REMARK                            x       y       z     vdW  Elec       q    Type
REMARK                         _______ _______ _______ _____ _____    ______ ____
ROOT
ATOM      1  CB  HIS A   1      14.151  15.866  55.921  0.00  0.00    +0.072 C 
ENDROOT
BRANCH   1   2
ATOM      2  CG  HIS A   1      12.879  16.596  56.218  0.00  0.00    +0.082 A 
ATOM      3  CD2 HIS A   1      12.361  17.043  57.388  0.00  0.00    +0.115 A 
ATOM      4  NE2 HIS A   1      11.160  17.642  57.098  0.00  0.00    -0.221 NA
ATOM      5  CE1 HIS A   1      10.947  17.566  55.796  0.00  0.00    +0.199 A 
ATOM      6  ND1 HIS A   1      11.971  16.938  55.241  0.00  0.00    -0.227 NA
ENDBRANCH   1   2
BRANCH   1   7
ATOM      7  CA  HIS A   1      15.091  15.756  57.125  0.00  0.00    +0.139 C 
BRANCH   7   8
ATOM      8  N   HIS A   1      15.689  17.053  57.427  0.00  0.00    -0.239 NA
ATOM      9  H   HIS A   1      15.583  17.831  56.745  0.00  0.00    +0.142 HD
ENDBRANCH   7   8
BRANCH   7  10
ATOM     10  C   HIS A   1      16.183  14.740  56.838  0.00  0.00    +0.224 C 
ATOM     11  O   HIS A   1      15.943  13.525  56.840  0.00  0.00    -0.287 OA
ENDBRANCH   7  10
ENDBRANCH   1   7
TORSDOF 4
REMARK  Name = ../refined-set-2016/4i9h/4i9h_pocket.pdb
REMARK  282 active torsions:
REMARK  status: ('A' for Active; 'I' for Inactive)
REMARK    1  A    between atoms: _1  and  _3
REMARK    2  A    between atoms: _3  and  _4
REMARK    3  A    between atoms: _3  and  _6
REMARK    4  A    between atoms: _9  and  _11
REMARK    5  A    between atoms: _11  and  _12
REMARK    6  A    between atoms: _11  and  _14
REMARK    7  A    between atoms: _17  and  _19
REMARK    8  A    between atoms: _19  and  _20
REMARK    9  A    between atoms: _22  and  _24
REMARK   10  A    between atoms: _24  and  _25
REMARK   11  A    between atoms: _24  and  _27
REMARK   12  A    between atoms: _30  and  _32
REMARK   13  A    between atoms: _32  and  _33
REMARK   14  A    between atoms: _35  and  _37
REMARK   15  A    between atoms: _37  and  _38
REMARK   16  A    between atoms: _41  and  _43
REMARK   17  A    between atoms: _43  and  _44
REMARK   18  A    between atoms: _43  and  _46
REMARK   19  A    between atoms: _49  and  _51
REMARK   20  A    between atoms: _51  and  _52
REMARK   21  A    between atoms: _54  and  _56
REMARK   22  A    between atoms: _56  and  _57
REMARK   23  A    between atoms: _56  and  _59
REMARK   24  A    between atoms: _59  and  _60
REMARK   25  A    between atoms: _60  and  _61
REMARK   26  A    between atoms: _63  and  _65
REMARK   27  A    between atoms: _65  and  _66
REMARK   28  A    between atoms: _65  and  _68
REMARK   29  A    between atoms: _70  and  _72
REMARK   30  A    between atoms: _72  and  _73
REMARK   31  A    between atoms: _72  and  _75
REMARK   32  A    between atoms: _75  and  _76
REMARK   33  A    between atoms: _79  and  _81
REMARK   34  A    between atoms: _81  and  _82
REMARK   35  A    between atoms: _81  and  _84
REMARK   36  A    between atoms: _87  and  _89
REMARK   37  A    between atoms: _89  and  _90
REMARK   38  A    between atoms: _89  and  _92
REMARK   39  A    between atoms: _92  and  _93
REMARK   40  A    between atoms: _96  and  _98
REMARK   41  A    between atoms: _98  and  _99
REMARK   42  A    between atoms: _98  and  _101
REMARK   43  A    between atoms: _104  and  _106
REMARK   44  A    between atoms: _106  and  _107
REMARK   45  A    between atoms: _106  and  _109
REMARK   46  A    between atoms: _109  and  _110
REMARK   47  A    between atoms: _110  and  _111
REMARK   48  A    between atoms: _113  and  _115
REMARK   49  A    between atoms: _115  and  _116
REMARK   50  A    between atoms: _115  and  _118
REMARK   51  A    between atoms: _118  and  _119
REMARK   52  A    between atoms: _119  and  _120
REMARK   53  A    between atoms: _120  and  _121
REMARK   54  A    between atoms: _121  and  _122
REMARK   55  A    between atoms: _126  and  _128
REMARK   56  A    between atoms: _128  and  _129
REMARK   57  A    between atoms: _128  and  _131
REMARK   58  A    between atoms: _131  and  _132
REMARK   59  A    between atoms: _135  and  _137
REMARK   60  A    between atoms: _137  and  _138
REMARK   61  A    between atoms: _137  and  _140
REMARK   62  A    between atoms: _140  and  _141
REMARK   63  A    between atoms: _141  and  _142
REMARK   64  A    between atoms: _142  and  _143
REMARK   65  A    between atoms: _143  and  _144
REMARK   66  A    between atoms: _148  and  _150
REMARK   67  A    between atoms: _150  and  _151
REMARK   68  A    between atoms: _150  and  _153
REMARK   69  A    between atoms: _153  and  _154
REMARK   70  A    between atoms: _159  and  _160
REMARK   71  A    between atoms: _162  and  _164
REMARK   72  A    between atoms: _164  and  _165
REMARK   73  A    between atoms: _164  and  _167
REMARK   74  A    between atoms: _167  and  _168
REMARK   75  A    between atoms: _171  and  _173
REMARK   76  A    between atoms: _173  and  _174
REMARK   77  A    between atoms: _173  and  _176
REMARK   78  A    between atoms: _176  and  _177
REMARK   79  A    between atoms: _180  and  _182
REMARK   80  A    between atoms: _182  and  _183
REMARK   81  A    between atoms: _182  and  _185
REMARK   82  A    between atoms: _185  and  _186
REMARK   83  A    between atoms: _189  and  _191
REMARK   84  A    between atoms: _191  and  _192
REMARK   85  A    between atoms: _195  and  _197
REMARK   86  A    between atoms: _197  and  _198
REMARK   87  A    between atoms: _200  and  _202
REMARK   88  A    between atoms: _202  and  _203
REMARK   89  A    between atoms: _206  and  _208
REMARK   90  A    between atoms: _208  and  _209
REMARK   91  A    between atoms: _208  and  _211
REMARK   92  A    between atoms: _211  and  _212
REMARK   93  A    between atoms: _212  and  _213
REMARK   94  A    between atoms: _213  and  _214
REMARK   95  A    between atoms: _223  and  _225
REMARK   96  A    between atoms: _225  and  _226
REMARK   97  A    between atoms: _225  and  _228
REMARK   98  A    between atoms: _228  and  _229
REMARK   99  A    between atoms: _229  and  _230
REMARK  100  A    between atoms: _235  and  _237
REMARK  101  A    between atoms: _237  and  _238
REMARK  102  A    between atoms: _237  and  _240
REMARK  103  A    between atoms: _240  and  _241
REMARK  104  A    between atoms: _246  and  _248
REMARK  105  A    between atoms: _248  and  _249
REMARK  106  A    between atoms: _248  and  _251
REMARK  107  A    between atoms: _251  and  _252
REMARK  108  A    between atoms: _255  and  _257
REMARK  109  A    between atoms: _257  and  _258
REMARK  110  A    between atoms: _257  and  _260
REMARK  111  A    between atoms: _260  and  _261
REMARK  112  A    between atoms: _261  and  _262
REMARK  113  A    between atoms: _267  and  _269
REMARK  114  A    between atoms: _269  and  _270
REMARK  115  A    between atoms: _269  and  _272
REMARK  116  A    between atoms: _272  and  _273
REMARK  117  A    between atoms: _273  and  _274
REMARK  118  A    between atoms: _274  and  _275
REMARK  119  A    between atoms: _284  and  _286
REMARK  120  A    between atoms: _286  and  _287
REMARK  121  A    between atoms: _286  and  _289
REMARK  122  A    between atoms: _289  and  _290
REMARK  123  A    between atoms: _295  and  _297
REMARK  124  A    between atoms: _297  and  _298
REMARK  125  A    between atoms: _297  and  _300
REMARK  126  A    between atoms: _303  and  _305
REMARK  127  A    between atoms: _305  and  _306
REMARK  128  A    between atoms: _305  and  _308
REMARK  129  A    between atoms: _308  and  _309
REMARK  130  A    between atoms: _314  and  _316
REMARK  131  A    between atoms: _316  and  _317
REMARK  132  A    between atoms: _316  and  _319
REMARK  133  A    between atoms: _319  and  _320
REMARK  134  A    between atoms: _323  and  _325
REMARK  135  A    between atoms: _325  and  _326
REMARK  136  A    between atoms: _325  and  _328
REMARK  137  A    between atoms: _328  and  _329
REMARK  138  A    between atoms: _335  and  _337
REMARK  139  A    between atoms: _337  and  _338
REMARK  140  A    between atoms: _337  and  _340
REMARK  141  A    between atoms: _340  and  _341
REMARK  142  A    between atoms: _341  and  _342
REMARK  143  A    between atoms: _342  and  _343
REMARK  144  A    between atoms: _343  and  _344
REMARK  145  A    between atoms: _348  and  _350
REMARK  146  A    between atoms: _350  and  _351
REMARK  147  A    between atoms: _350  and  _353
REMARK  148  A    between atoms: _353  and  _354
REMARK  149  A    between atoms: _360  and  _362
REMARK  150  A    between atoms: _362  and  _363
REMARK  151  A    between atoms: _362  and  _365
REMARK  152  A    between atoms: _365  and  _366
REMARK  153  A    between atoms: _369  and  _371
REMARK  154  A    between atoms: _371  and  _372
REMARK  155  A    between atoms: _371  and  _374
REMARK  156  A    between atoms: _374  and  _375
REMARK  157  A    between atoms: _378  and  _380
REMARK  158  A    between atoms: _380  and  _381
REMARK  159  A    between atoms: _380  and  _383
REMARK  160  A    between atoms: _383  and  _384
REMARK  161  A    between atoms: _389  and  _391
REMARK  162  A    between atoms: _391  and  _392
REMARK  163  A    between atoms: _391  and  _394
REMARK  164  A    between atoms: _394  and  _395
REMARK  165  A    between atoms: _398  and  _400
REMARK  166  A    between atoms: _400  and  _401
REMARK  167  A    between atoms: _400  and  _403
REMARK  168  A    between atoms: _406  and  _408
REMARK  169  A    between atoms: _408  and  _409
REMARK  170  A    between atoms: _408  and  _411
REMARK  171  A    between atoms: _414  and  _416
REMARK  172  A    between atoms: _416  and  _417
REMARK  173  A    between atoms: _416  and  _419
REMARK  174  A    between atoms: _419  and  _420
REMARK  175  A    between atoms: _422  and  _424
REMARK  176  A    between atoms: _424  and  _425
REMARK  177  A    between atoms: _424  and  _427
REMARK  178  A    between atoms: _427  and  _428
REMARK  179  A    between atoms: _433  and  _435
REMARK  180  A    between atoms: _435  and  _436
REMARK  181  A    between atoms: _435  and  _438
REMARK  182  A    between atoms: _441  and  _443
REMARK  183  A    between atoms: _443  and  _444
REMARK  184  A    between atoms: _443  and  _446
REMARK  185  A    between atoms: _446  and  _447
REMARK  186  A    between atoms: _450  and  _452
REMARK  187  A    between atoms: _452  and  _453
REMARK  188  A    between atoms: _452  and  _455
REMARK  189  A    between atoms: _455  and  _456
REMARK  190  A    between atoms: _458  and  _460
REMARK  191  A    between atoms: _460  and  _461
REMARK  192  A    between atoms: _463  and  _465
REMARK  193  A    between atoms: _465  and  _466
REMARK  194  A    between atoms: _465  and  _468
REMARK  195  A    between atoms: _468  and  _469
REMARK  196  A    between atoms: _472  and  _474
REMARK  197  A    between atoms: _474  and  _475
REMARK  198  A    between atoms: _474  and  _477
REMARK  199  A    between atoms: _477  and  _478
REMARK  200  A    between atoms: _481  and  _483
REMARK  201  A    between atoms: _483  and  _484
REMARK  202  A    between atoms: _483  and  _486
REMARK  203  A    between atoms: _486  and  _487
REMARK  204  A    between atoms: _487  and  _488
REMARK  205  A    between atoms: _488  and  _489
REMARK  206  A    between atoms: _498  and  _500
REMARK  207  A    between atoms: _500  and  _501
REMARK  208  A    between atoms: _500  and  _503
REMARK  209  A    between atoms: _503  and  _504
REMARK  210  A    between atoms: _509  and  _511
REMARK  211  A    between atoms: _511  and  _512
REMARK  212  A    between atoms: _514  and  _516
REMARK  213  A    between atoms: _516  and  _517
REMARK  214  A    between atoms: _516  and  _519
REMARK  215  A    between atoms: _522  and  _524
REMARK  216  A    between atoms: _524  and  _525
REMARK  217  A    between atoms: _524  and  _527
REMARK  218  A    between atoms: _530  and  _532
REMARK  219  A    between atoms: _532  and  _533
REMARK  220  A    between atoms: _532  and  _535
REMARK  221  A    between atoms: _535  and  _536
REMARK  222  A    between atoms: _539  and  _541
REMARK  223  A    between atoms: _541  and  _542
REMARK  224  A    between atoms: _541  and  _544
REMARK  225  A    between atoms: _544  and  _545
REMARK  226  A    between atoms: _547  and  _549
REMARK  227  A    between atoms: _549  and  _550
REMARK  228  A    between atoms: _553  and  _555
REMARK  229  A    between atoms: _555  and  _556
REMARK  230  A    between atoms: _555  and  _558
REMARK  231  A    between atoms: _558  and  _559
REMARK  232  A    between atoms: _564  and  _565
REMARK  233  A    between atoms: _567  and  _569
REMARK  234  A    between atoms: _569  and  _570
REMARK  235  A    between atoms: _569  and  _572
REMARK  236  A    between atoms: _572  and  _573
REMARK  237  A    between atoms: _573  and  _574
REMARK  238  A    between atoms: _577  and  _579
REMARK  239  A    between atoms: _579  and  _580
REMARK  240  A    between atoms: _579  and  _582
REMARK  241  A    between atoms: _585  and  _587
REMARK  242  A    between atoms: _587  and  _588
REMARK  243  A    between atoms: _587  and  _590
REMARK  244  A    between atoms: _590  and  _591
REMARK  245  A    between atoms: _594  and  _596
REMARK  246  A    between atoms: _596  and  _597
REMARK  247  A    between atoms: _599  and  _601
REMARK  248  A    between atoms: _601  and  _602
REMARK  249  A    between atoms: _601  and  _604
REMARK  250  A    between atoms: _604  and  _605
REMARK  251  A    between atoms: _610  and  _611
REMARK  252  A    between atoms: _613  and  _615
REMARK  253  A    between atoms: _615  and  _616
REMARK  254  A    between atoms: _615  and  _618
REMARK  255  A    between atoms: _618  and  _619
REMARK  256  A    between atoms: _622  and  _624
REMARK  257  A    between atoms: _624  and  _625
REMARK  258  A    between atoms: _624  and  _627
REMARK  259  A    between atoms: _627  and  _628
REMARK  260  A    between atoms: _631  and  _633
REMARK  261  A    between atoms: _633  and  _634
REMARK  262  A    between atoms: _637  and  _639
REMARK  263  A    between atoms: _639  and  _640
REMARK  264  A    between atoms: _639  and  _642
REMARK  265  A    between atoms: _642  and  _643
REMARK  266  A    between atoms: _646  and  _648
REMARK  267  A    between atoms: _648  and  _649
REMARK  268  A    between atoms: _651  and  _653
REMARK  269  A    between atoms: _653  and  _654
REMARK  270  A    between atoms: _653  and  _656
REMARK  271  A    between atoms: _656  and  _657
REMARK  272  A    between atoms: _659  and  _661
REMARK  273  A    between atoms: _661  and  _662
REMARK  274  A    between atoms: _661  and  _664
REMARK  275  A    between atoms: _667  and  _669
REMARK  276  A    between atoms: _669  and  _670
REMARK  277  A    between atoms: _669  and  _672
REMARK  278  A    between atoms: _672  and  _673
REMARK  279  A    between atoms: _676  and  _678
REMARK  280  A    between atoms: _678  and  _679
REMARK  281  A    between atoms: _678  and  _681
REMARK  282  A    between atoms: _681  and  _682
REMARK                            x       y       z     vdW  Elec       q    Type
REMARK                         _______ _______ _______ _____ _____    ______ ____
ROOT
ATOM      1  O   HOH     1      17.169  14.488  38.696  0.00  0.00    +0.000 OA
ENDROOT
TORSDOF 0
REMARK  Name = ../refined-set-2016/4i9h/4i9h_pocket.pdb
REMARK  282 active torsions:
REMARK  status: ('A' for Active; 'I' for Inactive)
REMARK    1  A    between atoms: _1  and  _3
REMARK    2  A    between atoms: _3  and  _4
REMARK    3  A    between atoms: _3  and  _6
REMARK    4  A    between atoms: _9  and  _11
REMARK    5  A    between atoms: _11  and  _12
REMARK    6  A    between atoms: _11  and  _14
REMARK    7  A    between atoms: _17  and  _19
REMARK    8  A    between atoms: _19  and  _20
REMARK    9  A    between atoms: _22  and  _24
REMARK   10  A    between atoms: _24  and  _25
REMARK   11  A    between atoms: _24  and  _27
REMARK   12  A    between atoms: _30  and  _32
REMARK   13  A    between atoms: _32  and  _33
REMARK   14  A    between atoms: _35  and  _37
REMARK   15  A    between atoms: _37  and  _38
REMARK   16  A    between atoms: _41  and  _43
REMARK   17  A    between atoms: _43  and  _44
REMARK   18  A    between atoms: _43  and  _46
REMARK   19  A    between atoms: _49  and  _51
REMARK   20  A    between atoms: _51  and  _52
REMARK   21  A    between atoms: _54  and  _56
REMARK   22  A    between atoms: _56  and  _57
REMARK   23  A    between atoms: _56  and  _59
REMARK   24  A    between atoms: _59  and  _60
REMARK   25  A    between atoms: _60  and  _61
REMARK   26  A    between atoms: _63  and  _65
REMARK   27  A    between atoms: _65  and  _66
REMARK   28  A    between atoms: _65  and  _68
REMARK   29  A    between atoms: _70  and  _72
REMARK   30  A    between atoms: _72  and  _73
REMARK   31  A    between atoms: _72  and  _75
REMARK   32  A    between atoms: _75  and  _76
REMARK   33  A    between atoms: _79  and  _81
REMARK   34  A    between atoms: _81  and  _82
REMARK   35  A    between atoms: _81  and  _84
REMARK   36  A    between atoms: _87  and  _89
REMARK   37  A    between atoms: _89  and  _90
REMARK   38  A    between atoms: _89  and  _92
REMARK   39  A    between atoms: _92  and  _93
REMARK   40  A    between atoms: _96  and  _98
REMARK   41  A    between atoms: _98  and  _99
REMARK   42  A    between atoms: _98  and  _101
REMARK   43  A    between atoms: _104  and  _106
REMARK   44  A    between atoms: _106  and  _107
REMARK   45  A    between atoms: _106  and  _109
REMARK   46  A    between atoms: _109  and  _110
REMARK   47  A    between atoms: _110  and  _111
REMARK   48  A    between atoms: _113  and  _115
REMARK   49  A    between atoms: _115  and  _116
REMARK   50  A    between atoms: _115  and  _118
REMARK   51  A    between atoms: _118  and  _119
REMARK   52  A    between atoms: _119  and  _120
REMARK   53  A    between atoms: _120  and  _121
REMARK   54  A    between atoms: _121  and  _122
REMARK   55  A    between atoms: _126  and  _128
REMARK   56  A    between atoms: _128  and  _129
REMARK   57  A    between atoms: _128  and  _131
REMARK   58  A    between atoms: _131  and  _132
REMARK   59  A    between atoms: _135  and  _137
REMARK   60  A    between atoms: _137  and  _138
REMARK   61  A    between atoms: _137  and  _140
REMARK   62  A    between atoms: _140  and  _141
REMARK   63  A    between atoms: _141  and  _142
REMARK   64  A    between atoms: _142  and  _143
REMARK   65  A    between atoms: _143  and  _144
REMARK   66  A    between atoms: _148  and  _150
REMARK   67  A    between atoms: _150  and  _151
REMARK   68  A    between atoms: _150  and  _153
REMARK   69  A    between atoms: _153  and  _154
REMARK   70  A    between atoms: _159  and  _160
REMARK   71  A    between atoms: _162  and  _164
REMARK   72  A    between atoms: _164  and  _165
REMARK   73  A    between atoms: _164  and  _167
REMARK   74  A    between atoms: _167  and  _168
REMARK   75  A    between atoms: _171  and  _173
REMARK   76  A    between atoms: _173  and  _174
REMARK   77  A    between atoms: _173  and  _176
REMARK   78  A    between atoms: _176  and  _177
REMARK   79  A    between atoms: _180  and  _182
REMARK   80  A    between atoms: _182  and  _183
REMARK   81  A    between atoms: _182  and  _185
REMARK   82  A    between atoms: _185  and  _186
REMARK   83  A    between atoms: _189  and  _191
REMARK   84  A    between atoms: _191  and  _192
REMARK   85  A    between atoms: _195  and  _197
REMARK   86  A    between atoms: _197  and  _198
REMARK   87  A    between atoms: _200  and  _202
REMARK   88  A    between atoms: _202  and  _203
REMARK   89  A    between atoms: _206  and  _208
REMARK   90  A    between atoms: _208  and  _209
REMARK   91  A    between atoms: _208  and  _211
REMARK   92  A    between atoms: _211  and  _212
REMARK   93  A    between atoms: _212  and  _213
REMARK   94  A    between atoms: _213  and  _214
REMARK   95  A    between atoms: _223  and  _225
REMARK   96  A    between atoms: _225  and  _226
REMARK   97  A    between atoms: _225  and  _228
REMARK   98  A    between atoms: _228  and  _229
REMARK   99  A    between atoms: _229  and  _230
REMARK  100  A    between atoms: _235  and  _237
REMARK  101  A    between atoms: _237  and  _238
REMARK  102  A    between atoms: _237  and  _240
REMARK  103  A    between atoms: _240  and  _241
REMARK  104  A    between atoms: _246  and  _248
REMARK  105  A    between atoms: _248  and  _249
REMARK  106  A    between atoms: _248  and  _251
REMARK  107  A    between atoms: _251  and  _252
REMARK  108  A    between atoms: _255  and  _257
REMARK  109  A    between atoms: _257  and  _258
REMARK  110  A    between atoms: _257  and  _260
REMARK  111  A    between atoms: _260  and  _261
REMARK  112  A    between atoms: _261  and  _262
REMARK  113  A    between atoms: _267  and  _269
REMARK  114  A    between atoms: _269  and  _270
REMARK  115  A    between atoms: _269  and  _272
REMARK  116  A    between atoms: _272  and  _273
REMARK  117  A    between atoms: _273  and  _274
REMARK  118  A    between atoms: _274  and  _275
REMARK  119  A    between atoms: _284  and  _286
REMARK  120  A    between atoms: _286  and  _287
REMARK  121  A    between atoms: _286  and  _289
REMARK  122  A    between atoms: _289  and  _290
REMARK  123  A    between atoms: _295  and  _297
REMARK  124  A    between atoms: _297  and  _298
REMARK  125  A    between atoms: _297  and  _300
REMARK  126  A    between atoms: _303  and  _305
REMARK  127  A    between atoms: _305  and  _306
REMARK  128  A    between atoms: _305  and  _308
REMARK  129  A    between atoms: _308  and  _309
REMARK  130  A    between atoms: _314  and  _316
REMARK  131  A    between atoms: _316  and  _317
REMARK  132  A    between atoms: _316  and  _319
REMARK  133  A    between atoms: _319  and  _320
REMARK  134  A    between atoms: _323  and  _325
REMARK  135  A    between atoms: _325  and  _326
REMARK  136  A    between atoms: _325  and  _328
REMARK  137  A    between atoms: _328  and  _329
REMARK  138  A    between atoms: _335  and  _337
REMARK  139  A    between atoms: _337  and  _338
REMARK  140  A    between atoms: _337  and  _340
REMARK  141  A    between atoms: _340  and  _341
REMARK  142  A    between atoms: _341  and  _342
REMARK  143  A    between atoms: _342  and  _343
REMARK  144  A    between atoms: _343  and  _344
REMARK  145  A    between atoms: _348  and  _350
REMARK  146  A    between atoms: _350  and  _351
REMARK  147  A    between atoms: _350  and  _353
REMARK  148  A    between atoms: _353  and  _354
REMARK  149  A    between atoms: _360  and  _362
REMARK  150  A    between atoms: _362  and  _363
REMARK  151  A    between atoms: _362  and  _365
REMARK  152  A    between atoms: _365  and  _366
REMARK  153  A    between atoms: _369  and  _371
REMARK  154  A    between atoms: _371  and  _372
REMARK  155  A    between atoms: _371  and  _374
REMARK  156  A    between atoms: _374  and  _375
REMARK  157  A    between atoms: _378  and  _380
REMARK  158  A    between atoms: _380  and  _381
REMARK  159  A    between atoms: _380  and  _383
REMARK  160  A    between atoms: _383  and  _384
REMARK  161  A    between atoms: _389  and  _391
REMARK  162  A    between atoms: _391  and  _392
REMARK  163  A    between atoms: _391  and  _394
REMARK  164  A    between atoms: _394  and  _395
REMARK  165  A    between atoms: _398  and  _400
REMARK  166  A    between atoms: _400  and  _401
REMARK  167  A    between atoms: _400  and  _403
REMARK  168  A    between atoms: _406  and  _408
REMARK  169  A    between atoms: _408  and  _409
REMARK  170  A    between atoms: _408  and  _411
REMARK  171  A    between atoms: _414  and  _416
REMARK  172  A    between atoms: _416  and  _417
REMARK  173  A    between atoms: _416  and  _419
REMARK  174  A    between atoms: _419  and  _420
REMARK  175  A    between atoms: _422  and  _424
REMARK  176  A    between atoms: _424  and  _425
REMARK  177  A    between atoms: _424  and  _427
REMARK  178  A    between atoms: _427  and  _428
REMARK  179  A    between atoms: _433  and  _435
REMARK  180  A    between atoms: _435  and  _436
REMARK  181  A    between atoms: _435  and  _438
REMARK  182  A    between atoms: _441  and  _443
REMARK  183  A    between atoms: _443  and  _444
REMARK  184  A    between atoms: _443  and  _446
REMARK  185  A    between atoms: _446  and  _447
REMARK  186  A    between atoms: _450  and  _452
REMARK  187  A    between atoms: _452  and  _453
REMARK  188  A    between atoms: _452  and  _455
REMARK  189  A    between atoms: _455  and  _456
REMARK  190  A    between atoms: _458  and  _460
REMARK  191  A    between atoms: _460  and  _461
REMARK  192  A    between atoms: _463  and  _465
REMARK  193  A    between atoms: _465  and  _466
REMARK  194  A    between atoms: _465  and  _468
REMARK  195  A    between atoms: _468  and  _469
REMARK  196  A    between atoms: _472  and  _474
REMARK  197  A    between atoms: _474  and  _475
REMARK  198  A    between atoms: _474  and  _477
REMARK  199  A    between atoms: _477  and  _478
REMARK  200  A    between atoms: _481  and  _483
REMARK  201  A    between atoms: _483  and  _484
REMARK  202  A    between atoms: _483  and  _486
REMARK  203  A    between atoms: _486  and  _487
REMARK  204  A    between atoms: _487  and  _488
REMARK  205  A    between atoms: _488  and  _489
REMARK  206  A    between atoms: _498  and  _500
REMARK  207  A    between atoms: _500  and  _501
REMARK  208  A    between atoms: _500  and  _503
REMARK  209  A    between atoms: _503  and  _504
REMARK  210  A    between atoms: _509  and  _511
REMARK  211  A    between atoms: _511  and  _512
REMARK  212  A    between atoms: _514  and  _516
REMARK  213  A    between atoms: _516  and  _517
REMARK  214  A    between atoms: _516  and  _519
REMARK  215  A    between atoms: _522  and  _524
REMARK  216  A    between atoms: _524  and  _525
REMARK  217  A    between atoms: _524  and  _527
REMARK  218  A    between atoms: _530  and  _532
REMARK  219  A    between atoms: _532  and  _533
REMARK  220  A    between atoms: _532  and  _535
REMARK  221  A    between atoms: _535  and  _536
REMARK  222  A    between atoms: _539  and  _541
REMARK  223  A    between atoms: _541  and  _542
REMARK  224  A    between atoms: _541  and  _544
REMARK  225  A    between atoms: _544  and  _545
REMARK  226  A    between atoms: _547  and  _549
REMARK  227  A    between atoms: _549  and  _550
REMARK  228  A    between atoms: _553  and  _555
REMARK  229  A    between atoms: _555  and  _556
REMARK  230  A    between atoms: _555  and  _558
REMARK  231  A    between atoms: _558  and  _559
REMARK  232  A    between atoms: _564  and  _565
REMARK  233  A    between atoms: _567  and  _569
REMARK  234  A    between atoms: _569  and  _570
REMARK  235  A    between atoms: _569  and  _572
REMARK  236  A    between atoms: _572  and  _573
REMARK  237  A    between atoms: _573  and  _574
REMARK  238  A    between atoms: _577  and  _579
REMARK  239  A    between atoms: _579  and  _580
REMARK  240  A    between atoms: _579  and  _582
REMARK  241  A    between atoms: _585  and  _587
REMARK  242  A    between atoms: _587  and  _588
REMARK  243  A    between atoms: _587  and  _590
REMARK  244  A    between atoms: _590  and  _591
REMARK  245  A    between atoms: _594  and  _596
REMARK  246  A    between atoms: _596  and  _597
REMARK  247  A    between atoms: _599  and  _601
REMARK  248  A    between atoms: _601  and  _602
REMARK  249  A    between atoms: _601  and  _604
REMARK  250  A    between atoms: _604  and  _605
REMARK  251  A    between atoms: _610  and  _611
REMARK  252  A    between atoms: _613  and  _615
REMARK  253  A    between atoms: _615  and  _616
REMARK  254  A    between atoms: _615  and  _618
REMARK  255  A    between atoms: _618  and  _619
REMARK  256  A    between atoms: _622  and  _624
REMARK  257  A    between atoms: _624  and  _625
REMARK  258  A    between atoms: _624  and  _627
REMARK  259  A    between atoms: _627  and  _628
REMARK  260  A    between atoms: _631  and  _633
REMARK  261  A    between atoms: _633  and  _634
REMARK  262  A    between atoms: _637  and  _639
REMARK  263  A    between atoms: _639  and  _640
REMARK  264  A    between atoms: _639  and  _642
REMARK  265  A    between atoms: _642  and  _643
REMARK  266  A    between atoms: _646  and  _648
REMARK  267  A    between atoms: _648  and  _649
REMARK  268  A    between atoms: _651  and  _653
REMARK  269  A    between atoms: _653  and  _654
REMARK  270  A    between atoms: _653  and  _656
REMARK  271  A    between atoms: _656  and  _657
REMARK  272  A    between atoms: _659  and  _661
REMARK  273  A    between atoms: _661  and  _662
REMARK  274  A    between atoms: _661  and  _664
REMARK  275  A    between atoms: _667  and  _669
REMARK  276  A    between atoms: _669  and  _670
REMARK  277  A    between atoms: _669  and  _672
REMARK  278  A    between atoms: _672  and  _673
REMARK  279  A    between atoms: _676  and  _678
REMARK  280  A    between atoms: _678  and  _679
REMARK  281  A    between atoms: _678  and  _681
REMARK  282  A    between atoms: _681  and  _682
REMARK                            x       y       z     vdW  Elec       q    Type
REMARK                         _______ _______ _______ _____ _____    ______ ____
ROOT
ATOM      1  O   HOH     1      10.653   8.715  45.476  0.00  0.00    +0.000 OA
ENDROOT
TORSDOF 0
REMARK  Name = ../refined-set-2016/4i9h/4i9h_pocket.pdb
REMARK  282 active torsions:
REMARK  status: ('A' for Active; 'I' for Inactive)
REMARK    1  A    between atoms: _1  and  _3
REMARK    2  A    between atoms: _3  and  _4
REMARK    3  A    between atoms: _3  and  _6
REMARK    4  A    between atoms: _9  and  _11
REMARK    5  A    between atoms: _11  and  _12
REMARK    6  A    between atoms: _11  and  _14
REMARK    7  A    between atoms: _17  and  _19
REMARK    8  A    between atoms: _19  and  _20
REMARK    9  A    between atoms: _22  and  _24
REMARK   10  A    between atoms: _24  and  _25
REMARK   11  A    between atoms: _24  and  _27
REMARK   12  A    between atoms: _30  and  _32
REMARK   13  A    between atoms: _32  and  _33
REMARK   14  A    between atoms: _35  and  _37
REMARK   15  A    between atoms: _37  and  _38
REMARK   16  A    between atoms: _41  and  _43
REMARK   17  A    between atoms: _43  and  _44
REMARK   18  A    between atoms: _43  and  _46
REMARK   19  A    between atoms: _49  and  _51
REMARK   20  A    between atoms: _51  and  _52
REMARK   21  A    between atoms: _54  and  _56
REMARK   22  A    between atoms: _56  and  _57
REMARK   23  A    between atoms: _56  and  _59
REMARK   24  A    between atoms: _59  and  _60
REMARK   25  A    between atoms: _60  and  _61
REMARK   26  A    between atoms: _63  and  _65
REMARK   27  A    between atoms: _65  and  _66
REMARK   28  A    between atoms: _65  and  _68
REMARK   29  A    between atoms: _70  and  _72
REMARK   30  A    between atoms: _72  and  _73
REMARK   31  A    between atoms: _72  and  _75
REMARK   32  A    between atoms: _75  and  _76
REMARK   33  A    between atoms: _79  and  _81
REMARK   34  A    between atoms: _81  and  _82
REMARK   35  A    between atoms: _81  and  _84
REMARK   36  A    between atoms: _87  and  _89
REMARK   37  A    between atoms: _89  and  _90
REMARK   38  A    between atoms: _89  and  _92
REMARK   39  A    between atoms: _92  and  _93
REMARK   40  A    between atoms: _96  and  _98
REMARK   41  A    between atoms: _98  and  _99
REMARK   42  A    between atoms: _98  and  _101
REMARK   43  A    between atoms: _104  and  _106
REMARK   44  A    between atoms: _106  and  _107
REMARK   45  A    between atoms: _106  and  _109
REMARK   46  A    between atoms: _109  and  _110
REMARK   47  A    between atoms: _110  and  _111
REMARK   48  A    between atoms: _113  and  _115
REMARK   49  A    between atoms: _115  and  _116
REMARK   50  A    between atoms: _115  and  _118
REMARK   51  A    between atoms: _118  and  _119
REMARK   52  A    between atoms: _119  and  _120
REMARK   53  A    between atoms: _120  and  _121
REMARK   54  A    between atoms: _121  and  _122
REMARK   55  A    between atoms: _126  and  _128
REMARK   56  A    between atoms: _128  and  _129
REMARK   57  A    between atoms: _128  and  _131
REMARK   58  A    between atoms: _131  and  _132
REMARK   59  A    between atoms: _135  and  _137
REMARK   60  A    between atoms: _137  and  _138
REMARK   61  A    between atoms: _137  and  _140
REMARK   62  A    between atoms: _140  and  _141
REMARK   63  A    between atoms: _141  and  _142
REMARK   64  A    between atoms: _142  and  _143
REMARK   65  A    between atoms: _143  and  _144
REMARK   66  A    between atoms: _148  and  _150
REMARK   67  A    between atoms: _150  and  _151
REMARK   68  A    between atoms: _150  and  _153
REMARK   69  A    between atoms: _153  and  _154
REMARK   70  A    between atoms: _159  and  _160
REMARK   71  A    between atoms: _162  and  _164
REMARK   72  A    between atoms: _164  and  _165
REMARK   73  A    between atoms: _164  and  _167
REMARK   74  A    between atoms: _167  and  _168
REMARK   75  A    between atoms: _171  and  _173
REMARK   76  A    between atoms: _173  and  _174
REMARK   77  A    between atoms: _173  and  _176
REMARK   78  A    between atoms: _176  and  _177
REMARK   79  A    between atoms: _180  and  _182
REMARK   80  A    between atoms: _182  and  _183
REMARK   81  A    between atoms: _182  and  _185
REMARK   82  A    between atoms: _185  and  _186
REMARK   83  A    between atoms: _189  and  _191
REMARK   84  A    between atoms: _191  and  _192
REMARK   85  A    between atoms: _195  and  _197
REMARK   86  A    between atoms: _197  and  _198
REMARK   87  A    between atoms: _200  and  _202
REMARK   88  A    between atoms: _202  and  _203
REMARK   89  A    between atoms: _206  and  _208
REMARK   90  A    between atoms: _208  and  _209
REMARK   91  A    between atoms: _208  and  _211
REMARK   92  A    between atoms: _211  and  _212
REMARK   93  A    between atoms: _212  and  _213
REMARK   94  A    between atoms: _213  and  _214
REMARK   95  A    between atoms: _223  and  _225
REMARK   96  A    between atoms: _225  and  _226
REMARK   97  A    between atoms: _225  and  _228
REMARK   98  A    between atoms: _228  and  _229
REMARK   99  A    between atoms: _229  and  _230
REMARK  100  A    between atoms: _235  and  _237
REMARK  101  A    between atoms: _237  and  _238
REMARK  102  A    between atoms: _237  and  _240
REMARK  103  A    between atoms: _240  and  _241
REMARK  104  A    between atoms: _246  and  _248
REMARK  105  A    between atoms: _248  and  _249
REMARK  106  A    between atoms: _248  and  _251
REMARK  107  A    between atoms: _251  and  _252
REMARK  108  A    between atoms: _255  and  _257
REMARK  109  A    between atoms: _257  and  _258
REMARK  110  A    between atoms: _257  and  _260
REMARK  111  A    between atoms: _260  and  _261
REMARK  112  A    between atoms: _261  and  _262
REMARK  113  A    between atoms: _267  and  _269
REMARK  114  A    between atoms: _269  and  _270
REMARK  115  A    between atoms: _269  and  _272
REMARK  116  A    between atoms: _272  and  _273
REMARK  117  A    between atoms: _273  and  _274
REMARK  118  A    between atoms: _274  and  _275
REMARK  119  A    between atoms: _284  and  _286
REMARK  120  A    between atoms: _286  and  _287
REMARK  121  A    between atoms: _286  and  _289
REMARK  122  A    between atoms: _289  and  _290
REMARK  123  A    between atoms: _295  and  _297
REMARK  124  A    between atoms: _297  and  _298
REMARK  125  A    between atoms: _297  and  _300
REMARK  126  A    between atoms: _303  and  _305
REMARK  127  A    between atoms: _305  and  _306
REMARK  128  A    between atoms: _305  and  _308
REMARK  129  A    between atoms: _308  and  _309
REMARK  130  A    between atoms: _314  and  _316
REMARK  131  A    between atoms: _316  and  _317
REMARK  132  A    between atoms: _316  and  _319
REMARK  133  A    between atoms: _319  and  _320
REMARK  134  A    between atoms: _323  and  _325
REMARK  135  A    between atoms: _325  and  _326
REMARK  136  A    between atoms: _325  and  _328
REMARK  137  A    between atoms: _328  and  _329
REMARK  138  A    between atoms: _335  and  _337
REMARK  139  A    between atoms: _337  and  _338
REMARK  140  A    between atoms: _337  and  _340
REMARK  141  A    between atoms: _340  and  _341
REMARK  142  A    between atoms: _341  and  _342
REMARK  143  A    between atoms: _342  and  _343
REMARK  144  A    between atoms: _343  and  _344
REMARK  145  A    between atoms: _348  and  _350
REMARK  146  A    between atoms: _350  and  _351
REMARK  147  A    between atoms: _350  and  _353
REMARK  148  A    between atoms: _353  and  _354
REMARK  149  A    between atoms: _360  and  _362
REMARK  150  A    between atoms: _362  and  _363
REMARK  151  A    between atoms: _362  and  _365
REMARK  152  A    between atoms: _365  and  _366
REMARK  153  A    between atoms: _369  and  _371
REMARK  154  A    between atoms: _371  and  _372
REMARK  155  A    between atoms: _371  and  _374
REMARK  156  A    between atoms: _374  and  _375
REMARK  157  A    between atoms: _378  and  _380
REMARK  158  A    between atoms: _380  and  _381
REMARK  159  A    between atoms: _380  and  _383
REMARK  160  A    between atoms: _383  and  _384
REMARK  161  A    between atoms: _389  and  _391
REMARK  162  A    between atoms: _391  and  _392
REMARK  163  A    between atoms: _391  and  _394
REMARK  164  A    between atoms: _394  and  _395
REMARK  165  A    between atoms: _398  and  _400
REMARK  166  A    between atoms: _400  and  _401
REMARK  167  A    between atoms: _400  and  _403
REMARK  168  A    between atoms: _406  and  _408
REMARK  169  A    between atoms: _408  and  _409
REMARK  170  A    between atoms: _408  and  _411
REMARK  171  A    between atoms: _414  and  _416
REMARK  172  A    between atoms: _416  and  _417
REMARK  173  A    between atoms: _416  and  _419
REMARK  174  A    between atoms: _419  and  _420
REMARK  175  A    between atoms: _422  and  _424
REMARK  176  A    between atoms: _424  and  _425
REMARK  177  A    between atoms: _424  and  _427
REMARK  178  A    between atoms: _427  and  _428
REMARK  179  A    between atoms: _433  and  _435
REMARK  180  A    between atoms: _435  and  _436
REMARK  181  A    between atoms: _435  and  _438
REMARK  182  A    between atoms: _441  and  _443
REMARK  183  A    between atoms: _443  and  _444
REMARK  184  A    between atoms: _443  and  _446
REMARK  185  A    between atoms: _446  and  _447
REMARK  186  A    between atoms: _450  and  _452
REMARK  187  A    between atoms: _452  and  _453
REMARK  188  A    between atoms: _452  and  _455
REMARK  189  A    between atoms: _455  and  _456
REMARK  190  A    between atoms: _458  and  _460
REMARK  191  A    between atoms: _460  and  _461
REMARK  192  A    between atoms: _463  and  _465
REMARK  193  A    between atoms: _465  and  _466
REMARK  194  A    between atoms: _465  and  _468
REMARK  195  A    between atoms: _468  and  _469
REMARK  196  A    between atoms: _472  and  _474
REMARK  197  A    between atoms: _474  and  _475
REMARK  198  A    between atoms: _474  and  _477
REMARK  199  A    between atoms: _477  and  _478
REMARK  200  A    between atoms: _481  and  _483
REMARK  201  A    between atoms: _483  and  _484
REMARK  202  A    between atoms: _483  and  _486
REMARK  203  A    between atoms: _486  and  _487
REMARK  204  A    between atoms: _487  and  _488
REMARK  205  A    between atoms: _488  and  _489
REMARK  206  A    between atoms: _498  and  _500
REMARK  207  A    between atoms: _500  and  _501
REMARK  208  A    between atoms: _500  and  _503
REMARK  209  A    between atoms: _503  and  _504
REMARK  210  A    between atoms: _509  and  _511
REMARK  211  A    between atoms: _511  and  _512
REMARK  212  A    between atoms: _514  and  _516
REMARK  213  A    between atoms: _516  and  _517
REMARK  214  A    between atoms: _516  and  _519
REMARK  215  A    between atoms: _522  and  _524
REMARK  216  A    between atoms: _524  and  _525
REMARK  217  A    between atoms: _524  and  _527
REMARK  218  A    between atoms: _530  and  _532
REMARK  219  A    between atoms: _532  and  _533
REMARK  220  A    between atoms: _532  and  _535
REMARK  221  A    between atoms: _535  and  _536
REMARK  222  A    between atoms: _539  and  _541
REMARK  223  A    between atoms: _541  and  _542
REMARK  224  A    between atoms: _541  and  _544
REMARK  225  A    between atoms: _544  and  _545
REMARK  226  A    between atoms: _547  and  _549
REMARK  227  A    between atoms: _549  and  _550
REMARK  228  A    between atoms: _553  and  _555
REMARK  229  A    between atoms: _555  and  _556
REMARK  230  A    between atoms: _555  and  _558
REMARK  231  A    between atoms: _558  and  _559
REMARK  232  A    between atoms: _564  and  _565
REMARK  233  A    between atoms: _567  and  _569
REMARK  234  A    between atoms: _569  and  _570
REMARK  235  A    between atoms: _569  and  _572
REMARK  236  A    between atoms: _572  and  _573
REMARK  237  A    between atoms: _573  and  _574
REMARK  238  A    between atoms: _577  and  _579
REMARK  239  A    between atoms: _579  and  _580
REMARK  240  A    between atoms: _579  and  _582
REMARK  241  A    between atoms: _585  and  _587
REMARK  242  A    between atoms: _587  and  _588
REMARK  243  A    between atoms: _587  and  _590
REMARK  244  A    between atoms: _590  and  _591
REMARK  245  A    between atoms: _594  and  _596
REMARK  246  A    between atoms: _596  and  _597
REMARK  247  A    between atoms: _599  and  _601
REMARK  248  A    between atoms: _601  and  _602
REMARK  249  A    between atoms: _601  and  _604
REMARK  250  A    between atoms: _604  and  _605
REMARK  251  A    between atoms: _610  and  _611
REMARK  252  A    between atoms: _613  and  _615
REMARK  253  A    between atoms: _615  and  _616
REMARK  254  A    between atoms: _615  and  _618
REMARK  255  A    between atoms: _618  and  _619
REMARK  256  A    between atoms: _622  and  _624
REMARK  257  A    between atoms: _624  and  _625
REMARK  258  A    between atoms: _624  and  _627
REMARK  259  A    between atoms: _627  and  _628
REMARK  260  A    between atoms: _631  and  _633
REMARK  261  A    between atoms: _633  and  _634
REMARK  262  A    between atoms: _637  and  _639
REMARK  263  A    between atoms: _639  and  _640
REMARK  264  A    between atoms: _639  and  _642
REMARK  265  A    between atoms: _642  and  _643
REMARK  266  A    between atoms: _646  and  _648
REMARK  267  A    between atoms: _648  and  _649
REMARK  268  A    between atoms: _651  and  _653
REMARK  269  A    between atoms: _653  and  _654
REMARK  270  A    between atoms: _653  and  _656
REMARK  271  A    between atoms: _656  and  _657
REMARK  272  A    between atoms: _659  and  _661
REMARK  273  A    between atoms: _661  and  _662
REMARK  274  A    between atoms: _661  and  _664
REMARK  275  A    between atoms: _667  and  _669
REMARK  276  A    between atoms: _669  and  _670
REMARK  277  A    between atoms: _669  and  _672
REMARK  278  A    between atoms: _672  and  _673
REMARK  279  A    between atoms: _676  and  _678
REMARK  280  A    between atoms: _678  and  _679
REMARK  281  A    between atoms: _678  and  _681
REMARK  282  A    between atoms: _681  and  _682
REMARK                            x       y       z     vdW  Elec       q    Type
REMARK                         _______ _______ _______ _____ _____    ______ ____
ROOT
ATOM      1  O   HOH     1      18.067   9.317  28.555  0.00  0.00    +0.000 OA
ENDROOT
TORSDOF 0
REMARK  Name = ../refined-set-2016/4i9h/4i9h_pocket.pdb
REMARK  282 active torsions:
REMARK  status: ('A' for Active; 'I' for Inactive)
REMARK    1  A    between atoms: _1  and  _3
REMARK    2  A    between atoms: _3  and  _4
REMARK    3  A    between atoms: _3  and  _6
REMARK    4  A    between atoms: _9  and  _11
REMARK    5  A    between atoms: _11  and  _12
REMARK    6  A    between atoms: _11  and  _14
REMARK    7  A    between atoms: _17  and  _19
REMARK    8  A    between atoms: _19  and  _20
REMARK    9  A    between atoms: _22  and  _24
REMARK   10  A    between atoms: _24  and  _25
REMARK   11  A    between atoms: _24  and  _27
REMARK   12  A    between atoms: _30  and  _32
REMARK   13  A    between atoms: _32  and  _33
REMARK   14  A    between atoms: _35  and  _37
REMARK   15  A    between atoms: _37  and  _38
REMARK   16  A    between atoms: _41  and  _43
REMARK   17  A    between atoms: _43  and  _44
REMARK   18  A    between atoms: _43  and  _46
REMARK   19  A    between atoms: _49  and  _51
REMARK   20  A    between atoms: _51  and  _52
REMARK   21  A    between atoms: _54  and  _56
REMARK   22  A    between atoms: _56  and  _57
REMARK   23  A    between atoms: _56  and  _59
REMARK   24  A    between atoms: _59  and  _60
REMARK   25  A    between atoms: _60  and  _61
REMARK   26  A    between atoms: _63  and  _65
REMARK   27  A    between atoms: _65  and  _66
REMARK   28  A    between atoms: _65  and  _68
REMARK   29  A    between atoms: _70  and  _72
REMARK   30  A    between atoms: _72  and  _73
REMARK   31  A    between atoms: _72  and  _75
REMARK   32  A    between atoms: _75  and  _76
REMARK   33  A    between atoms: _79  and  _81
REMARK   34  A    between atoms: _81  and  _82
REMARK   35  A    between atoms: _81  and  _84
REMARK   36  A    between atoms: _87  and  _89
REMARK   37  A    between atoms: _89  and  _90
REMARK   38  A    between atoms: _89  and  _92
REMARK   39  A    between atoms: _92  and  _93
REMARK   40  A    between atoms: _96  and  _98
REMARK   41  A    between atoms: _98  and  _99
REMARK   42  A    between atoms: _98  and  _101
REMARK   43  A    between atoms: _104  and  _106
REMARK   44  A    between atoms: _106  and  _107
REMARK   45  A    between atoms: _106  and  _109
REMARK   46  A    between atoms: _109  and  _110
REMARK   47  A    between atoms: _110  and  _111
REMARK   48  A    between atoms: _113  and  _115
REMARK   49  A    between atoms: _115  and  _116
REMARK   50  A    between atoms: _115  and  _118
REMARK   51  A    between atoms: _118  and  _119
REMARK   52  A    between atoms: _119  and  _120
REMARK   53  A    between atoms: _120  and  _121
REMARK   54  A    between atoms: _121  and  _122
REMARK   55  A    between atoms: _126  and  _128
REMARK   56  A    between atoms: _128  and  _129
REMARK   57  A    between atoms: _128  and  _131
REMARK   58  A    between atoms: _131  and  _132
REMARK   59  A    between atoms: _135  and  _137
REMARK   60  A    between atoms: _137  and  _138
REMARK   61  A    between atoms: _137  and  _140
REMARK   62  A    between atoms: _140  and  _141
REMARK   63  A    between atoms: _141  and  _142
REMARK   64  A    between atoms: _142  and  _143
REMARK   65  A    between atoms: _143  and  _144
REMARK   66  A    between atoms: _148  and  _150
REMARK   67  A    between atoms: _150  and  _151
REMARK   68  A    between atoms: _150  and  _153
REMARK   69  A    between atoms: _153  and  _154
REMARK   70  A    between atoms: _159  and  _160
REMARK   71  A    between atoms: _162  and  _164
REMARK   72  A    between atoms: _164  and  _165
REMARK   73  A    between atoms: _164  and  _167
REMARK   74  A    between atoms: _167  and  _168
REMARK   75  A    between atoms: _171  and  _173
REMARK   76  A    between atoms: _173  and  _174
REMARK   77  A    between atoms: _173  and  _176
REMARK   78  A    between atoms: _176  and  _177
REMARK   79  A    between atoms: _180  and  _182
REMARK   80  A    between atoms: _182  and  _183
REMARK   81  A    between atoms: _182  and  _185
REMARK   82  A    between atoms: _185  and  _186
REMARK   83  A    between atoms: _189  and  _191
REMARK   84  A    between atoms: _191  and  _192
REMARK   85  A    between atoms: _195  and  _197
REMARK   86  A    between atoms: _197  and  _198
REMARK   87  A    between atoms: _200  and  _202
REMARK   88  A    between atoms: _202  and  _203
REMARK   89  A    between atoms: _206  and  _208
REMARK   90  A    between atoms: _208  and  _209
REMARK   91  A    between atoms: _208  and  _211
REMARK   92  A    between atoms: _211  and  _212
REMARK   93  A    between atoms: _212  and  _213
REMARK   94  A    between atoms: _213  and  _214
REMARK   95  A    between atoms: _223  and  _225
REMARK   96  A    between atoms: _225  and  _226
REMARK   97  A    between atoms: _225  and  _228
REMARK   98  A    between atoms: _228  and  _229
REMARK   99  A    between atoms: _229  and  _230
REMARK  100  A    between atoms: _235  and  _237
REMARK  101  A    between atoms: _237  and  _238
REMARK  102  A    between atoms: _237  and  _240
REMARK  103  A    between atoms: _240  and  _241
REMARK  104  A    between atoms: _246  and  _248
REMARK  105  A    between atoms: _248  and  _249
REMARK  106  A    between atoms: _248  and  _251
REMARK  107  A    between atoms: _251  and  _252
REMARK  108  A    between atoms: _255  and  _257
REMARK  109  A    between atoms: _257  and  _258
REMARK  110  A    between atoms: _257  and  _260
REMARK  111  A    between atoms: _260  and  _261
REMARK  112  A    between atoms: _261  and  _262
REMARK  113  A    between atoms: _267  and  _269
REMARK  114  A    between atoms: _269  and  _270
REMARK  115  A    between atoms: _269  and  _272
REMARK  116  A    between atoms: _272  and  _273
REMARK  117  A    between atoms: _273  and  _274
REMARK  118  A    between atoms: _274  and  _275
REMARK  119  A    between atoms: _284  and  _286
REMARK  120  A    between atoms: _286  and  _287
REMARK  121  A    between atoms: _286  and  _289
REMARK  122  A    between atoms: _289  and  _290
REMARK  123  A    between atoms: _295  and  _297
REMARK  124  A    between atoms: _297  and  _298
REMARK  125  A    between atoms: _297  and  _300
REMARK  126  A    between atoms: _303  and  _305
REMARK  127  A    between atoms: _305  and  _306
REMARK  128  A    between atoms: _305  and  _308
REMARK  129  A    between atoms: _308  and  _309
REMARK  130  A    between atoms: _314  and  _316
REMARK  131  A    between atoms: _316  and  _317
REMARK  132  A    between atoms: _316  and  _319
REMARK  133  A    between atoms: _319  and  _320
REMARK  134  A    between atoms: _323  and  _325
REMARK  135  A    between atoms: _325  and  _326
REMARK  136  A    between atoms: _325  and  _328
REMARK  137  A    between atoms: _328  and  _329
REMARK  138  A    between atoms: _335  and  _337
REMARK  139  A    between atoms: _337  and  _338
REMARK  140  A    between atoms: _337  and  _340
REMARK  141  A    between atoms: _340  and  _341
REMARK  142  A    between atoms: _341  and  _342
REMARK  143  A    between atoms: _342  and  _343
REMARK  144  A    between atoms: _343  and  _344
REMARK  145  A    between atoms: _348  and  _350
REMARK  146  A    between atoms: _350  and  _351
REMARK  147  A    between atoms: _350  and  _353
REMARK  148  A    between atoms: _353  and  _354
REMARK  149  A    between atoms: _360  and  _362
REMARK  150  A    between atoms: _362  and  _363
REMARK  151  A    between atoms: _362  and  _365
REMARK  152  A    between atoms: _365  and  _366
REMARK  153  A    between atoms: _369  and  _371
REMARK  154  A    between atoms: _371  and  _372
REMARK  155  A    between atoms: _371  and  _374
REMARK  156  A    between atoms: _374  and  _375
REMARK  157  A    between atoms: _378  and  _380
REMARK  158  A    between atoms: _380  and  _381
REMARK  159  A    between atoms: _380  and  _383
REMARK  160  A    between atoms: _383  and  _384
REMARK  161  A    between atoms: _389  and  _391
REMARK  162  A    between atoms: _391  and  _392
REMARK  163  A    between atoms: _391  and  _394
REMARK  164  A    between atoms: _394  and  _395
REMARK  165  A    between atoms: _398  and  _400
REMARK  166  A    between atoms: _400  and  _401
REMARK  167  A    between atoms: _400  and  _403
REMARK  168  A    between atoms: _406  and  _408
REMARK  169  A    between atoms: _408  and  _409
REMARK  170  A    between atoms: _408  and  _411
REMARK  171  A    between atoms: _414  and  _416
REMARK  172  A    between atoms: _416  and  _417
REMARK  173  A    between atoms: _416  and  _419
REMARK  174  A    between atoms: _419  and  _420
REMARK  175  A    between atoms: _422  and  _424
REMARK  176  A    between atoms: _424  and  _425
REMARK  177  A    between atoms: _424  and  _427
REMARK  178  A    between atoms: _427  and  _428
REMARK  179  A    between atoms: _433  and  _435
REMARK  180  A    between atoms: _435  and  _436
REMARK  181  A    between atoms: _435  and  _438
REMARK  182  A    between atoms: _441  and  _443
REMARK  183  A    between atoms: _443  and  _444
REMARK  184  A    between atoms: _443  and  _446
REMARK  185  A    between atoms: _446  and  _447
REMARK  186  A    between atoms: _450  and  _452
REMARK  187  A    between atoms: _452  and  _453
REMARK  188  A    between atoms: _452  and  _455
REMARK  189  A    between atoms: _455  and  _456
REMARK  190  A    between atoms: _458  and  _460
REMARK  191  A    between atoms: _460  and  _461
REMARK  192  A    between atoms: _463  and  _465
REMARK  193  A    between atoms: _465  and  _466
REMARK  194  A    between atoms: _465  and  _468
REMARK  195  A    between atoms: _468  and  _469
REMARK  196  A    between atoms: _472  and  _474
REMARK  197  A    between atoms: _474  and  _475
REMARK  198  A    between atoms: _474  and  _477
REMARK  199  A    between atoms: _477  and  _478
REMARK  200  A    between atoms: _481  and  _483
REMARK  201  A    between atoms: _483  and  _484
REMARK  202  A    between atoms: _483  and  _486
REMARK  203  A    between atoms: _486  and  _487
REMARK  204  A    between atoms: _487  and  _488
REMARK  205  A    between atoms: _488  and  _489
REMARK  206  A    between atoms: _498  and  _500
REMARK  207  A    between atoms: _500  and  _501
REMARK  208  A    between atoms: _500  and  _503
REMARK  209  A    between atoms: _503  and  _504
REMARK  210  A    between atoms: _509  and  _511
REMARK  211  A    between atoms: _511  and  _512
REMARK  212  A    between atoms: _514  and  _516
REMARK  213  A    between atoms: _516  and  _517
REMARK  214  A    between atoms: _516  and  _519
REMARK  215  A    between atoms: _522  and  _524
REMARK  216  A    between atoms: _524  and  _525
REMARK  217  A    between atoms: _524  and  _527
REMARK  218  A    between atoms: _530  and  _532
REMARK  219  A    between atoms: _532  and  _533
REMARK  220  A    between atoms: _532  and  _535
REMARK  221  A    between atoms: _535  and  _536
REMARK  222  A    between atoms: _539  and  _541
REMARK  223  A    between atoms: _541  and  _542
REMARK  224  A    between atoms: _541  and  _544
REMARK  225  A    between atoms: _544  and  _545
REMARK  226  A    between atoms: _547  and  _549
REMARK  227  A    between atoms: _549  and  _550
REMARK  228  A    between atoms: _553  and  _555
REMARK  229  A    between atoms: _555  and  _556
REMARK  230  A    between atoms: _555  and  _558
REMARK  231  A    between atoms: _558  and  _559
REMARK  232  A    between atoms: _564  and  _565
REMARK  233  A    between atoms: _567  and  _569
REMARK  234  A    between atoms: _569  and  _570
REMARK  235  A    between atoms: _569  and  _572
REMARK  236  A    between atoms: _572  and  _573
REMARK  237  A    between atoms: _573  and  _574
REMARK  238  A    between atoms: _577  and  _579
REMARK  239  A    between atoms: _579  and  _580
REMARK  240  A    between atoms: _579  and  _582
REMARK  241  A    between atoms: _585  and  _587
REMARK  242  A    between atoms: _587  and  _588
REMARK  243  A    between atoms: _587  and  _590
REMARK  244  A    between atoms: _590  and  _591
REMARK  245  A    between atoms: _594  and  _596
REMARK  246  A    between atoms: _596  and  _597
REMARK  247  A    between atoms: _599  and  _601
REMARK  248  A    between atoms: _601  and  _602
REMARK  249  A    between atoms: _601  and  _604
REMARK  250  A    between atoms: _604  and  _605
REMARK  251  A    between atoms: _610  and  _611
REMARK  252  A    between atoms: _613  and  _615
REMARK  253  A    between atoms: _615  and  _616
REMARK  254  A    between atoms: _615  and  _618
REMARK  255  A    between atoms: _618  and  _619
REMARK  256  A    between atoms: _622  and  _624
REMARK  257  A    between atoms: _624  and  _625
REMARK  258  A    between atoms: _624  and  _627
REMARK  259  A    between atoms: _627  and  _628
REMARK  260  A    between atoms: _631  and  _633
REMARK  261  A    between atoms: _633  and  _634
REMARK  262  A    between atoms: _637  and  _639
REMARK  263  A    between atoms: _639  and  _640
REMARK  264  A    between atoms: _639  and  _642
REMARK  265  A    between atoms: _642  and  _643
REMARK  266  A    between atoms: _646  and  _648
REMARK  267  A    between atoms: _648  and  _649
REMARK  268  A    between atoms: _651  and  _653
REMARK  269  A    between atoms: _653  and  _654
REMARK  270  A    between atoms: _653  and  _656
REMARK  271  A    between atoms: _656  and  _657
REMARK  272  A    between atoms: _659  and  _661
REMARK  273  A    between atoms: _661  and  _662
REMARK  274  A    between atoms: _661  and  _664
REMARK  275  A    between atoms: _667  and  _669
REMARK  276  A    between atoms: _669  and  _670
REMARK  277  A    between atoms: _669  and  _672
REMARK  278  A    between atoms: _672  and  _673
REMARK  279  A    between atoms: _676  and  _678
REMARK  280  A    between atoms: _678  and  _679
REMARK  281  A    between atoms: _678  and  _681
REMARK  282  A    between atoms: _681  and  _682
REMARK                            x       y       z     vdW  Elec       q    Type
REMARK                         _______ _______ _______ _____ _____    ______ ____
ROOT
ATOM      1  O   HOH     1      13.336   6.976  49.640  0.00  0.00    +0.000 OA
ENDROOT
TORSDOF 0
REMARK  Name = ../refined-set-2016/4i9h/4i9h_pocket.pdb
REMARK  282 active torsions:
REMARK  status: ('A' for Active; 'I' for Inactive)
REMARK    1  A    between atoms: _1  and  _3
REMARK    2  A    between atoms: _3  and  _4
REMARK    3  A    between atoms: _3  and  _6
REMARK    4  A    between atoms: _9  and  _11
REMARK    5  A    between atoms: _11  and  _12
REMARK    6  A    between atoms: _11  and  _14
REMARK    7  A    between atoms: _17  and  _19
REMARK    8  A    between atoms: _19  and  _20
REMARK    9  A    between atoms: _22  and  _24
REMARK   10  A    between atoms: _24  and  _25
REMARK   11  A    between atoms: _24  and  _27
REMARK   12  A    between atoms: _30  and  _32
REMARK   13  A    between atoms: _32  and  _33
REMARK   14  A    between atoms: _35  and  _37
REMARK   15  A    between atoms: _37  and  _38
REMARK   16  A    between atoms: _41  and  _43
REMARK   17  A    between atoms: _43  and  _44
REMARK   18  A    between atoms: _43  and  _46
REMARK   19  A    between atoms: _49  and  _51
REMARK   20  A    between atoms: _51  and  _52
REMARK   21  A    between atoms: _54  and  _56
REMARK   22  A    between atoms: _56  and  _57
REMARK   23  A    between atoms: _56  and  _59
REMARK   24  A    between atoms: _59  and  _60
REMARK   25  A    between atoms: _60  and  _61
REMARK   26  A    between atoms: _63  and  _65
REMARK   27  A    between atoms: _65  and  _66
REMARK   28  A    between atoms: _65  and  _68
REMARK   29  A    between atoms: _70  and  _72
REMARK   30  A    between atoms: _72  and  _73
REMARK   31  A    between atoms: _72  and  _75
REMARK   32  A    between atoms: _75  and  _76
REMARK   33  A    between atoms: _79  and  _81
REMARK   34  A    between atoms: _81  and  _82
REMARK   35  A    between atoms: _81  and  _84
REMARK   36  A    between atoms: _87  and  _89
REMARK   37  A    between atoms: _89  and  _90
REMARK   38  A    between atoms: _89  and  _92
REMARK   39  A    between atoms: _92  and  _93
REMARK   40  A    between atoms: _96  and  _98
REMARK   41  A    between atoms: _98  and  _99
REMARK   42  A    between atoms: _98  and  _101
REMARK   43  A    between atoms: _104  and  _106
REMARK   44  A    between atoms: _106  and  _107
REMARK   45  A    between atoms: _106  and  _109
REMARK   46  A    between atoms: _109  and  _110
REMARK   47  A    between atoms: _110  and  _111
REMARK   48  A    between atoms: _113  and  _115
REMARK   49  A    between atoms: _115  and  _116
REMARK   50  A    between atoms: _115  and  _118
REMARK   51  A    between atoms: _118  and  _119
REMARK   52  A    between atoms: _119  and  _120
REMARK   53  A    between atoms: _120  and  _121
REMARK   54  A    between atoms: _121  and  _122
REMARK   55  A    between atoms: _126  and  _128
REMARK   56  A    between atoms: _128  and  _129
REMARK   57  A    between atoms: _128  and  _131
REMARK   58  A    between atoms: _131  and  _132
REMARK   59  A    between atoms: _135  and  _137
REMARK   60  A    between atoms: _137  and  _138
REMARK   61  A    between atoms: _137  and  _140
REMARK   62  A    between atoms: _140  and  _141
REMARK   63  A    between atoms: _141  and  _142
REMARK   64  A    between atoms: _142  and  _143
REMARK   65  A    between atoms: _143  and  _144
REMARK   66  A    between atoms: _148  and  _150
REMARK   67  A    between atoms: _150  and  _151
REMARK   68  A    between atoms: _150  and  _153
REMARK   69  A    between atoms: _153  and  _154
REMARK   70  A    between atoms: _159  and  _160
REMARK   71  A    between atoms: _162  and  _164
REMARK   72  A    between atoms: _164  and  _165
REMARK   73  A    between atoms: _164  and  _167
REMARK   74  A    between atoms: _167  and  _168
REMARK   75  A    between atoms: _171  and  _173
REMARK   76  A    between atoms: _173  and  _174
REMARK   77  A    between atoms: _173  and  _176
REMARK   78  A    between atoms: _176  and  _177
REMARK   79  A    between atoms: _180  and  _182
REMARK   80  A    between atoms: _182  and  _183
REMARK   81  A    between atoms: _182  and  _185
REMARK   82  A    between atoms: _185  and  _186
REMARK   83  A    between atoms: _189  and  _191
REMARK   84  A    between atoms: _191  and  _192
REMARK   85  A    between atoms: _195  and  _197
REMARK   86  A    between atoms: _197  and  _198
REMARK   87  A    between atoms: _200  and  _202
REMARK   88  A    between atoms: _202  and  _203
REMARK   89  A    between atoms: _206  and  _208
REMARK   90  A    between atoms: _208  and  _209
REMARK   91  A    between atoms: _208  and  _211
REMARK   92  A    between atoms: _211  and  _212
REMARK   93  A    between atoms: _212  and  _213
REMARK   94  A    between atoms: _213  and  _214
REMARK   95  A    between atoms: _223  and  _225
REMARK   96  A    between atoms: _225  and  _226
REMARK   97  A    between atoms: _225  and  _228
REMARK   98  A    between atoms: _228  and  _229
REMARK   99  A    between atoms: _229  and  _230
REMARK  100  A    between atoms: _235  and  _237
REMARK  101  A    between atoms: _237  and  _238
REMARK  102  A    between atoms: _237  and  _240
REMARK  103  A    between atoms: _240  and  _241
REMARK  104  A    between atoms: _246  and  _248
REMARK  105  A    between atoms: _248  and  _249
REMARK  106  A    between atoms: _248  and  _251
REMARK  107  A    between atoms: _251  and  _252
REMARK  108  A    between atoms: _255  and  _257
REMARK  109  A    between atoms: _257  and  _258
REMARK  110  A    between atoms: _257  and  _260
REMARK  111  A    between atoms: _260  and  _261
REMARK  112  A    between atoms: _261  and  _262
REMARK  113  A    between atoms: _267  and  _269
REMARK  114  A    between atoms: _269  and  _270
REMARK  115  A    between atoms: _269  and  _272
REMARK  116  A    between atoms: _272  and  _273
REMARK  117  A    between atoms: _273  and  _274
REMARK  118  A    between atoms: _274  and  _275
REMARK  119  A    between atoms: _284  and  _286
REMARK  120  A    between atoms: _286  and  _287
REMARK  121  A    between atoms: _286  and  _289
REMARK  122  A    between atoms: _289  and  _290
REMARK  123  A    between atoms: _295  and  _297
REMARK  124  A    between atoms: _297  and  _298
REMARK  125  A    between atoms: _297  and  _300
REMARK  126  A    between atoms: _303  and  _305
REMARK  127  A    between atoms: _305  and  _306
REMARK  128  A    between atoms: _305  and  _308
REMARK  129  A    between atoms: _308  and  _309
REMARK  130  A    between atoms: _314  and  _316
REMARK  131  A    between atoms: _316  and  _317
REMARK  132  A    between atoms: _316  and  _319
REMARK  133  A    between atoms: _319  and  _320
REMARK  134  A    between atoms: _323  and  _325
REMARK  135  A    between atoms: _325  and  _326
REMARK  136  A    between atoms: _325  and  _328
REMARK  137  A    between atoms: _328  and  _329
REMARK  138  A    between atoms: _335  and  _337
REMARK  139  A    between atoms: _337  and  _338
REMARK  140  A    between atoms: _337  and  _340
REMARK  141  A    between atoms: _340  and  _341
REMARK  142  A    between atoms: _341  and  _342
REMARK  143  A    between atoms: _342  and  _343
REMARK  144  A    between atoms: _343  and  _344
REMARK  145  A    between atoms: _348  and  _350
REMARK  146  A    between atoms: _350  and  _351
REMARK  147  A    between atoms: _350  and  _353
REMARK  148  A    between atoms: _353  and  _354
REMARK  149  A    between atoms: _360  and  _362
REMARK  150  A    between atoms: _362  and  _363
REMARK  151  A    between atoms: _362  and  _365
REMARK  152  A    between atoms: _365  and  _366
REMARK  153  A    between atoms: _369  and  _371
REMARK  154  A    between atoms: _371  and  _372
REMARK  155  A    between atoms: _371  and  _374
REMARK  156  A    between atoms: _374  and  _375
REMARK  157  A    between atoms: _378  and  _380
REMARK  158  A    between atoms: _380  and  _381
REMARK  159  A    between atoms: _380  and  _383
REMARK  160  A    between atoms: _383  and  _384
REMARK  161  A    between atoms: _389  and  _391
REMARK  162  A    between atoms: _391  and  _392
REMARK  163  A    between atoms: _391  and  _394
REMARK  164  A    between atoms: _394  and  _395
REMARK  165  A    between atoms: _398  and  _400
REMARK  166  A    between atoms: _400  and  _401
REMARK  167  A    between atoms: _400  and  _403
REMARK  168  A    between atoms: _406  and  _408
REMARK  169  A    between atoms: _408  and  _409
REMARK  170  A    between atoms: _408  and  _411
REMARK  171  A    between atoms: _414  and  _416
REMARK  172  A    between atoms: _416  and  _417
REMARK  173  A    between atoms: _416  and  _419
REMARK  174  A    between atoms: _419  and  _420
REMARK  175  A    between atoms: _422  and  _424
REMARK  176  A    between atoms: _424  and  _425
REMARK  177  A    between atoms: _424  and  _427
REMARK  178  A    between atoms: _427  and  _428
REMARK  179  A    between atoms: _433  and  _435
REMARK  180  A    between atoms: _435  and  _436
REMARK  181  A    between atoms: _435  and  _438
REMARK  182  A    between atoms: _441  and  _443
REMARK  183  A    between atoms: _443  and  _444
REMARK  184  A    between atoms: _443  and  _446
REMARK  185  A    between atoms: _446  and  _447
REMARK  186  A    between atoms: _450  and  _452
REMARK  187  A    between atoms: _452  and  _453
REMARK  188  A    between atoms: _452  and  _455
REMARK  189  A    between atoms: _455  and  _456
REMARK  190  A    between atoms: _458  and  _460
REMARK  191  A    between atoms: _460  and  _461
REMARK  192  A    between atoms: _463  and  _465
REMARK  193  A    between atoms: _465  and  _466
REMARK  194  A    between atoms: _465  and  _468
REMARK  195  A    between atoms: _468  and  _469
REMARK  196  A    between atoms: _472  and  _474
REMARK  197  A    between atoms: _474  and  _475
REMARK  198  A    between atoms: _474  and  _477
REMARK  199  A    between atoms: _477  and  _478
REMARK  200  A    between atoms: _481  and  _483
REMARK  201  A    between atoms: _483  and  _484
REMARK  202  A    between atoms: _483  and  _486
REMARK  203  A    between atoms: _486  and  _487
REMARK  204  A    between atoms: _487  and  _488
REMARK  205  A    between atoms: _488  and  _489
REMARK  206  A    between atoms: _498  and  _500
REMARK  207  A    between atoms: _500  and  _501
REMARK  208  A    between atoms: _500  and  _503
REMARK  209  A    between atoms: _503  and  _504
REMARK  210  A    between atoms: _509  and  _511
REMARK  211  A    between atoms: _511  and  _512
REMARK  212  A    between atoms: _514  and  _516
REMARK  213  A    between atoms: _516  and  _517
REMARK  214  A    between atoms: _516  and  _519
REMARK  215  A    between atoms: _522  and  _524
REMARK  216  A    between atoms: _524  and  _525
REMARK  217  A    between atoms: _524  and  _527
REMARK  218  A    between atoms: _530  and  _532
REMARK  219  A    between atoms: _532  and  _533
REMARK  220  A    between atoms: _532  and  _535
REMARK  221  A    between atoms: _535  and  _536
REMARK  222  A    between atoms: _539  and  _541
REMARK  223  A    between atoms: _541  and  _542
REMARK  224  A    between atoms: _541  and  _544
REMARK  225  A    between atoms: _544  and  _545
REMARK  226  A    between atoms: _547  and  _549
REMARK  227  A    between atoms: _549  and  _550
REMARK  228  A    between atoms: _553  and  _555
REMARK  229  A    between atoms: _555  and  _556
REMARK  230  A    between atoms: _555  and  _558
REMARK  231  A    between atoms: _558  and  _559
REMARK  232  A    between atoms: _564  and  _565
REMARK  233  A    between atoms: _567  and  _569
REMARK  234  A    between atoms: _569  and  _570
REMARK  235  A    between atoms: _569  and  _572
REMARK  236  A    between atoms: _572  and  _573
REMARK  237  A    between atoms: _573  and  _574
REMARK  238  A    between atoms: _577  and  _579
REMARK  239  A    between atoms: _579  and  _580
REMARK  240  A    between atoms: _579  and  _582
REMARK  241  A    between atoms: _585  and  _587
REMARK  242  A    between atoms: _587  and  _588
REMARK  243  A    between atoms: _587  and  _590
REMARK  244  A    between atoms: _590  and  _591
REMARK  245  A    between atoms: _594  and  _596
REMARK  246  A    between atoms: _596  and  _597
REMARK  247  A    between atoms: _599  and  _601
REMARK  248  A    between atoms: _601  and  _602
REMARK  249  A    between atoms: _601  and  _604
REMARK  250  A    between atoms: _604  and  _605
REMARK  251  A    between atoms: _610  and  _611
REMARK  252  A    between atoms: _613  and  _615
REMARK  253  A    between atoms: _615  and  _616
REMARK  254  A    between atoms: _615  and  _618
REMARK  255  A    between atoms: _618  and  _619
REMARK  256  A    between atoms: _622  and  _624
REMARK  257  A    between atoms: _624  and  _625
REMARK  258  A    between atoms: _624  and  _627
REMARK  259  A    between atoms: _627  and  _628
REMARK  260  A    between atoms: _631  and  _633
REMARK  261  A    between atoms: _633  and  _634
REMARK  262  A    between atoms: _637  and  _639
REMARK  263  A    between atoms: _639  and  _640
REMARK  264  A    between atoms: _639  and  _642
REMARK  265  A    between atoms: _642  and  _643
REMARK  266  A    between atoms: _646  and  _648
REMARK  267  A    between atoms: _648  and  _649
REMARK  268  A    between atoms: _651  and  _653
REMARK  269  A    between atoms: _653  and  _654
REMARK  270  A    between atoms: _653  and  _656
REMARK  271  A    between atoms: _656  and  _657
REMARK  272  A    between atoms: _659  and  _661
REMARK  273  A    between atoms: _661  and  _662
REMARK  274  A    between atoms: _661  and  _664
REMARK  275  A    between atoms: _667  and  _669
REMARK  276  A    between atoms: _669  and  _670
REMARK  277  A    between atoms: _669  and  _672
REMARK  278  A    between atoms: _672  and  _673
REMARK  279  A    between atoms: _676  and  _678
REMARK  280  A    between atoms: _678  and  _679
REMARK  281  A    between atoms: _678  and  _681
REMARK  282  A    between atoms: _681  and  _682
REMARK                            x       y       z     vdW  Elec       q    Type
REMARK                         _______ _______ _______ _____ _____    ______ ____
ROOT
ATOM      1  O   HOH     1      10.377   8.014  51.392  0.00  0.00    +0.000 OA
ENDROOT
TORSDOF 0
REMARK  Name = ../refined-set-2016/4i9h/4i9h_pocket.pdb
REMARK  282 active torsions:
REMARK  status: ('A' for Active; 'I' for Inactive)
REMARK    1  A    between atoms: _1  and  _3
REMARK    2  A    between atoms: _3  and  _4
REMARK    3  A    between atoms: _3  and  _6
REMARK    4  A    between atoms: _9  and  _11
REMARK    5  A    between atoms: _11  and  _12
REMARK    6  A    between atoms: _11  and  _14
REMARK    7  A    between atoms: _17  and  _19
REMARK    8  A    between atoms: _19  and  _20
REMARK    9  A    between atoms: _22  and  _24
REMARK   10  A    between atoms: _24  and  _25
REMARK   11  A    between atoms: _24  and  _27
REMARK   12  A    between atoms: _30  and  _32
REMARK   13  A    between atoms: _32  and  _33
REMARK   14  A    between atoms: _35  and  _37
REMARK   15  A    between atoms: _37  and  _38
REMARK   16  A    between atoms: _41  and  _43
REMARK   17  A    between atoms: _43  and  _44
REMARK   18  A    between atoms: _43  and  _46
REMARK   19  A    between atoms: _49  and  _51
REMARK   20  A    between atoms: _51  and  _52
REMARK   21  A    between atoms: _54  and  _56
REMARK   22  A    between atoms: _56  and  _57
REMARK   23  A    between atoms: _56  and  _59
REMARK   24  A    between atoms: _59  and  _60
REMARK   25  A    between atoms: _60  and  _61
REMARK   26  A    between atoms: _63  and  _65
REMARK   27  A    between atoms: _65  and  _66
REMARK   28  A    between atoms: _65  and  _68
REMARK   29  A    between atoms: _70  and  _72
REMARK   30  A    between atoms: _72  and  _73
REMARK   31  A    between atoms: _72  and  _75
REMARK   32  A    between atoms: _75  and  _76
REMARK   33  A    between atoms: _79  and  _81
REMARK   34  A    between atoms: _81  and  _82
REMARK   35  A    between atoms: _81  and  _84
REMARK   36  A    between atoms: _87  and  _89
REMARK   37  A    between atoms: _89  and  _90
REMARK   38  A    between atoms: _89  and  _92
REMARK   39  A    between atoms: _92  and  _93
REMARK   40  A    between atoms: _96  and  _98
REMARK   41  A    between atoms: _98  and  _99
REMARK   42  A    between atoms: _98  and  _101
REMARK   43  A    between atoms: _104  and  _106
REMARK   44  A    between atoms: _106  and  _107
REMARK   45  A    between atoms: _106  and  _109
REMARK   46  A    between atoms: _109  and  _110
REMARK   47  A    between atoms: _110  and  _111
REMARK   48  A    between atoms: _113  and  _115
REMARK   49  A    between atoms: _115  and  _116
REMARK   50  A    between atoms: _115  and  _118
REMARK   51  A    between atoms: _118  and  _119
REMARK   52  A    between atoms: _119  and  _120
REMARK   53  A    between atoms: _120  and  _121
REMARK   54  A    between atoms: _121  and  _122
REMARK   55  A    between atoms: _126  and  _128
REMARK   56  A    between atoms: _128  and  _129
REMARK   57  A    between atoms: _128  and  _131
REMARK   58  A    between atoms: _131  and  _132
REMARK   59  A    between atoms: _135  and  _137
REMARK   60  A    between atoms: _137  and  _138
REMARK   61  A    between atoms: _137  and  _140
REMARK   62  A    between atoms: _140  and  _141
REMARK   63  A    between atoms: _141  and  _142
REMARK   64  A    between atoms: _142  and  _143
REMARK   65  A    between atoms: _143  and  _144
REMARK   66  A    between atoms: _148  and  _150
REMARK   67  A    between atoms: _150  and  _151
REMARK   68  A    between atoms: _150  and  _153
REMARK   69  A    between atoms: _153  and  _154
REMARK   70  A    between atoms: _159  and  _160
REMARK   71  A    between atoms: _162  and  _164
REMARK   72  A    between atoms: _164  and  _165
REMARK   73  A    between atoms: _164  and  _167
REMARK   74  A    between atoms: _167  and  _168
REMARK   75  A    between atoms: _171  and  _173
REMARK   76  A    between atoms: _173  and  _174
REMARK   77  A    between atoms: _173  and  _176
REMARK   78  A    between atoms: _176  and  _177
REMARK   79  A    between atoms: _180  and  _182
REMARK   80  A    between atoms: _182  and  _183
REMARK   81  A    between atoms: _182  and  _185
REMARK   82  A    between atoms: _185  and  _186
REMARK   83  A    between atoms: _189  and  _191
REMARK   84  A    between atoms: _191  and  _192
REMARK   85  A    between atoms: _195  and  _197
REMARK   86  A    between atoms: _197  and  _198
REMARK   87  A    between atoms: _200  and  _202
REMARK   88  A    between atoms: _202  and  _203
REMARK   89  A    between atoms: _206  and  _208
REMARK   90  A    between atoms: _208  and  _209
REMARK   91  A    between atoms: _208  and  _211
REMARK   92  A    between atoms: _211  and  _212
REMARK   93  A    between atoms: _212  and  _213
REMARK   94  A    between atoms: _213  and  _214
REMARK   95  A    between atoms: _223  and  _225
REMARK   96  A    between atoms: _225  and  _226
REMARK   97  A    between atoms: _225  and  _228
REMARK   98  A    between atoms: _228  and  _229
REMARK   99  A    between atoms: _229  and  _230
REMARK  100  A    between atoms: _235  and  _237
REMARK  101  A    between atoms: _237  and  _238
REMARK  102  A    between atoms: _237  and  _240
REMARK  103  A    between atoms: _240  and  _241
REMARK  104  A    between atoms: _246  and  _248
REMARK  105  A    between atoms: _248  and  _249
REMARK  106  A    between atoms: _248  and  _251
REMARK  107  A    between atoms: _251  and  _252
REMARK  108  A    between atoms: _255  and  _257
REMARK  109  A    between atoms: _257  and  _258
REMARK  110  A    between atoms: _257  and  _260
REMARK  111  A    between atoms: _260  and  _261
REMARK  112  A    between atoms: _261  and  _262
REMARK  113  A    between atoms: _267  and  _269
REMARK  114  A    between atoms: _269  and  _270
REMARK  115  A    between atoms: _269  and  _272
REMARK  116  A    between atoms: _272  and  _273
REMARK  117  A    between atoms: _273  and  _274
REMARK  118  A    between atoms: _274  and  _275
REMARK  119  A    between atoms: _284  and  _286
REMARK  120  A    between atoms: _286  and  _287
REMARK  121  A    between atoms: _286  and  _289
REMARK  122  A    between atoms: _289  and  _290
REMARK  123  A    between atoms: _295  and  _297
REMARK  124  A    between atoms: _297  and  _298
REMARK  125  A    between atoms: _297  and  _300
REMARK  126  A    between atoms: _303  and  _305
REMARK  127  A    between atoms: _305  and  _306
REMARK  128  A    between atoms: _305  and  _308
REMARK  129  A    between atoms: _308  and  _309
REMARK  130  A    between atoms: _314  and  _316
REMARK  131  A    between atoms: _316  and  _317
REMARK  132  A    between atoms: _316  and  _319
REMARK  133  A    between atoms: _319  and  _320
REMARK  134  A    between atoms: _323  and  _325
REMARK  135  A    between atoms: _325  and  _326
REMARK  136  A    between atoms: _325  and  _328
REMARK  137  A    between atoms: _328  and  _329
REMARK  138  A    between atoms: _335  and  _337
REMARK  139  A    between atoms: _337  and  _338
REMARK  140  A    between atoms: _337  and  _340
REMARK  141  A    between atoms: _340  and  _341
REMARK  142  A    between atoms: _341  and  _342
REMARK  143  A    between atoms: _342  and  _343
REMARK  144  A    between atoms: _343  and  _344
REMARK  145  A    between atoms: _348  and  _350
REMARK  146  A    between atoms: _350  and  _351
REMARK  147  A    between atoms: _350  and  _353
REMARK  148  A    between atoms: _353  and  _354
REMARK  149  A    between atoms: _360  and  _362
REMARK  150  A    between atoms: _362  and  _363
REMARK  151  A    between atoms: _362  and  _365
REMARK  152  A    between atoms: _365  and  _366
REMARK  153  A    between atoms: _369  and  _371
REMARK  154  A    between atoms: _371  and  _372
REMARK  155  A    between atoms: _371  and  _374
REMARK  156  A    between atoms: _374  and  _375
REMARK  157  A    between atoms: _378  and  _380
REMARK  158  A    between atoms: _380  and  _381
REMARK  159  A    between atoms: _380  and  _383
REMARK  160  A    between atoms: _383  and  _384
REMARK  161  A    between atoms: _389  and  _391
REMARK  162  A    between atoms: _391  and  _392
REMARK  163  A    between atoms: _391  and  _394
REMARK  164  A    between atoms: _394  and  _395
REMARK  165  A    between atoms: _398  and  _400
REMARK  166  A    between atoms: _400  and  _401
REMARK  167  A    between atoms: _400  and  _403
REMARK  168  A    between atoms: _406  and  _408
REMARK  169  A    between atoms: _408  and  _409
REMARK  170  A    between atoms: _408  and  _411
REMARK  171  A    between atoms: _414  and  _416
REMARK  172  A    between atoms: _416  and  _417
REMARK  173  A    between atoms: _416  and  _419
REMARK  174  A    between atoms: _419  and  _420
REMARK  175  A    between atoms: _422  and  _424
REMARK  176  A    between atoms: _424  and  _425
REMARK  177  A    between atoms: _424  and  _427
REMARK  178  A    between atoms: _427  and  _428
REMARK  179  A    between atoms: _433  and  _435
REMARK  180  A    between atoms: _435  and  _436
REMARK  181  A    between atoms: _435  and  _438
REMARK  182  A    between atoms: _441  and  _443
REMARK  183  A    between atoms: _443  and  _444
REMARK  184  A    between atoms: _443  and  _446
REMARK  185  A    between atoms: _446  and  _447
REMARK  186  A    between atoms: _450  and  _452
REMARK  187  A    between atoms: _452  and  _453
REMARK  188  A    between atoms: _452  and  _455
REMARK  189  A    between atoms: _455  and  _456
REMARK  190  A    between atoms: _458  and  _460
REMARK  191  A    between atoms: _460  and  _461
REMARK  192  A    between atoms: _463  and  _465
REMARK  193  A    between atoms: _465  and  _466
REMARK  194  A    between atoms: _465  and  _468
REMARK  195  A    between atoms: _468  and  _469
REMARK  196  A    between atoms: _472  and  _474
REMARK  197  A    between atoms: _474  and  _475
REMARK  198  A    between atoms: _474  and  _477
REMARK  199  A    between atoms: _477  and  _478
REMARK  200  A    between atoms: _481  and  _483
REMARK  201  A    between atoms: _483  and  _484
REMARK  202  A    between atoms: _483  and  _486
REMARK  203  A    between atoms: _486  and  _487
REMARK  204  A    between atoms: _487  and  _488
REMARK  205  A    between atoms: _488  and  _489
REMARK  206  A    between atoms: _498  and  _500
REMARK  207  A    between atoms: _500  and  _501
REMARK  208  A    between atoms: _500  and  _503
REMARK  209  A    between atoms: _503  and  _504
REMARK  210  A    between atoms: _509  and  _511
REMARK  211  A    between atoms: _511  and  _512
REMARK  212  A    between atoms: _514  and  _516
REMARK  213  A    between atoms: _516  and  _517
REMARK  214  A    between atoms: _516  and  _519
REMARK  215  A    between atoms: _522  and  _524
REMARK  216  A    between atoms: _524  and  _525
REMARK  217  A    between atoms: _524  and  _527
REMARK  218  A    between atoms: _530  and  _532
REMARK  219  A    between atoms: _532  and  _533
REMARK  220  A    between atoms: _532  and  _535
REMARK  221  A    between atoms: _535  and  _536
REMARK  222  A    between atoms: _539  and  _541
REMARK  223  A    between atoms: _541  and  _542
REMARK  224  A    between atoms: _541  and  _544
REMARK  225  A    between atoms: _544  and  _545
REMARK  226  A    between atoms: _547  and  _549
REMARK  227  A    between atoms: _549  and  _550
REMARK  228  A    between atoms: _553  and  _555
REMARK  229  A    between atoms: _555  and  _556
REMARK  230  A    between atoms: _555  and  _558
REMARK  231  A    between atoms: _558  and  _559
REMARK  232  A    between atoms: _564  and  _565
REMARK  233  A    between atoms: _567  and  _569
REMARK  234  A    between atoms: _569  and  _570
REMARK  235  A    between atoms: _569  and  _572
REMARK  236  A    between atoms: _572  and  _573
REMARK  237  A    between atoms: _573  and  _574
REMARK  238  A    between atoms: _577  and  _579
REMARK  239  A    between atoms: _579  and  _580
REMARK  240  A    between atoms: _579  and  _582
REMARK  241  A    between atoms: _585  and  _587
REMARK  242  A    between atoms: _587  and  _588
REMARK  243  A    between atoms: _587  and  _590
REMARK  244  A    between atoms: _590  and  _591
REMARK  245  A    between atoms: _594  and  _596
REMARK  246  A    between atoms: _596  and  _597
REMARK  247  A    between atoms: _599  and  _601
REMARK  248  A    between atoms: _601  and  _602
REMARK  249  A    between atoms: _601  and  _604
REMARK  250  A    between atoms: _604  and  _605
REMARK  251  A    between atoms: _610  and  _611
REMARK  252  A    between atoms: _613  and  _615
REMARK  253  A    between atoms: _615  and  _616
REMARK  254  A    between atoms: _615  and  _618
REMARK  255  A    between atoms: _618  and  _619
REMARK  256  A    between atoms: _622  and  _624
REMARK  257  A    between atoms: _624  and  _625
REMARK  258  A    between atoms: _624  and  _627
REMARK  259  A    between atoms: _627  and  _628
REMARK  260  A    between atoms: _631  and  _633
REMARK  261  A    between atoms: _633  and  _634
REMARK  262  A    between atoms: _637  and  _639
REMARK  263  A    between atoms: _639  and  _640
REMARK  264  A    between atoms: _639  and  _642
REMARK  265  A    between atoms: _642  and  _643
REMARK  266  A    between atoms: _646  and  _648
REMARK  267  A    between atoms: _648  and  _649
REMARK  268  A    between atoms: _651  and  _653
REMARK  269  A    between atoms: _653  and  _654
REMARK  270  A    between atoms: _653  and  _656
REMARK  271  A    between atoms: _656  and  _657
REMARK  272  A    between atoms: _659  and  _661
REMARK  273  A    between atoms: _661  and  _662
REMARK  274  A    between atoms: _661  and  _664
REMARK  275  A    between atoms: _667  and  _669
REMARK  276  A    between atoms: _669  and  _670
REMARK  277  A    between atoms: _669  and  _672
REMARK  278  A    between atoms: _672  and  _673
REMARK  279  A    between atoms: _676  and  _678
REMARK  280  A    between atoms: _678  and  _679
REMARK  281  A    between atoms: _678  and  _681
REMARK  282  A    between atoms: _681  and  _682
REMARK                            x       y       z     vdW  Elec       q    Type
REMARK                         _______ _______ _______ _____ _____    ______ ____
ROOT
ATOM      1  O   HOH     1       6.329  13.571  52.055  0.00  0.00    +0.000 OA
ENDROOT
TORSDOF 0
REMARK  Name = ../refined-set-2016/4i9h/4i9h_pocket.pdb
REMARK  282 active torsions:
REMARK  status: ('A' for Active; 'I' for Inactive)
REMARK    1  A    between atoms: _1  and  _3
REMARK    2  A    between atoms: _3  and  _4
REMARK    3  A    between atoms: _3  and  _6
REMARK    4  A    between atoms: _9  and  _11
REMARK    5  A    between atoms: _11  and  _12
REMARK    6  A    between atoms: _11  and  _14
REMARK    7  A    between atoms: _17  and  _19
REMARK    8  A    between atoms: _19  and  _20
REMARK    9  A    between atoms: _22  and  _24
REMARK   10  A    between atoms: _24  and  _25
REMARK   11  A    between atoms: _24  and  _27
REMARK   12  A    between atoms: _30  and  _32
REMARK   13  A    between atoms: _32  and  _33
REMARK   14  A    between atoms: _35  and  _37
REMARK   15  A    between atoms: _37  and  _38
REMARK   16  A    between atoms: _41  and  _43
REMARK   17  A    between atoms: _43  and  _44
REMARK   18  A    between atoms: _43  and  _46
REMARK   19  A    between atoms: _49  and  _51
REMARK   20  A    between atoms: _51  and  _52
REMARK   21  A    between atoms: _54  and  _56
REMARK   22  A    between atoms: _56  and  _57
REMARK   23  A    between atoms: _56  and  _59
REMARK   24  A    between atoms: _59  and  _60
REMARK   25  A    between atoms: _60  and  _61
REMARK   26  A    between atoms: _63  and  _65
REMARK   27  A    between atoms: _65  and  _66
REMARK   28  A    between atoms: _65  and  _68
REMARK   29  A    between atoms: _70  and  _72
REMARK   30  A    between atoms: _72  and  _73
REMARK   31  A    between atoms: _72  and  _75
REMARK   32  A    between atoms: _75  and  _76
REMARK   33  A    between atoms: _79  and  _81
REMARK   34  A    between atoms: _81  and  _82
REMARK   35  A    between atoms: _81  and  _84
REMARK   36  A    between atoms: _87  and  _89
REMARK   37  A    between atoms: _89  and  _90
REMARK   38  A    between atoms: _89  and  _92
REMARK   39  A    between atoms: _92  and  _93
REMARK   40  A    between atoms: _96  and  _98
REMARK   41  A    between atoms: _98  and  _99
REMARK   42  A    between atoms: _98  and  _101
REMARK   43  A    between atoms: _104  and  _106
REMARK   44  A    between atoms: _106  and  _107
REMARK   45  A    between atoms: _106  and  _109
REMARK   46  A    between atoms: _109  and  _110
REMARK   47  A    between atoms: _110  and  _111
REMARK   48  A    between atoms: _113  and  _115
REMARK   49  A    between atoms: _115  and  _116
REMARK   50  A    between atoms: _115  and  _118
REMARK   51  A    between atoms: _118  and  _119
REMARK   52  A    between atoms: _119  and  _120
REMARK   53  A    between atoms: _120  and  _121
REMARK   54  A    between atoms: _121  and  _122
REMARK   55  A    between atoms: _126  and  _128
REMARK   56  A    between atoms: _128  and  _129
REMARK   57  A    between atoms: _128  and  _131
REMARK   58  A    between atoms: _131  and  _132
REMARK   59  A    between atoms: _135  and  _137
REMARK   60  A    between atoms: _137  and  _138
REMARK   61  A    between atoms: _137  and  _140
REMARK   62  A    between atoms: _140  and  _141
REMARK   63  A    between atoms: _141  and  _142
REMARK   64  A    between atoms: _142  and  _143
REMARK   65  A    between atoms: _143  and  _144
REMARK   66  A    between atoms: _148  and  _150
REMARK   67  A    between atoms: _150  and  _151
REMARK   68  A    between atoms: _150  and  _153
REMARK   69  A    between atoms: _153  and  _154
REMARK   70  A    between atoms: _159  and  _160
REMARK   71  A    between atoms: _162  and  _164
REMARK   72  A    between atoms: _164  and  _165
REMARK   73  A    between atoms: _164  and  _167
REMARK   74  A    between atoms: _167  and  _168
REMARK   75  A    between atoms: _171  and  _173
REMARK   76  A    between atoms: _173  and  _174
REMARK   77  A    between atoms: _173  and  _176
REMARK   78  A    between atoms: _176  and  _177
REMARK   79  A    between atoms: _180  and  _182
REMARK   80  A    between atoms: _182  and  _183
REMARK   81  A    between atoms: _182  and  _185
REMARK   82  A    between atoms: _185  and  _186
REMARK   83  A    between atoms: _189  and  _191
REMARK   84  A    between atoms: _191  and  _192
REMARK   85  A    between atoms: _195  and  _197
REMARK   86  A    between atoms: _197  and  _198
REMARK   87  A    between atoms: _200  and  _202
REMARK   88  A    between atoms: _202  and  _203
REMARK   89  A    between atoms: _206  and  _208
REMARK   90  A    between atoms: _208  and  _209
REMARK   91  A    between atoms: _208  and  _211
REMARK   92  A    between atoms: _211  and  _212
REMARK   93  A    between atoms: _212  and  _213
REMARK   94  A    between atoms: _213  and  _214
REMARK   95  A    between atoms: _223  and  _225
REMARK   96  A    between atoms: _225  and  _226
REMARK   97  A    between atoms: _225  and  _228
REMARK   98  A    between atoms: _228  and  _229
REMARK   99  A    between atoms: _229  and  _230
REMARK  100  A    between atoms: _235  and  _237
REMARK  101  A    between atoms: _237  and  _238
REMARK  102  A    between atoms: _237  and  _240
REMARK  103  A    between atoms: _240  and  _241
REMARK  104  A    between atoms: _246  and  _248
REMARK  105  A    between atoms: _248  and  _249
REMARK  106  A    between atoms: _248  and  _251
REMARK  107  A    between atoms: _251  and  _252
REMARK  108  A    between atoms: _255  and  _257
REMARK  109  A    between atoms: _257  and  _258
REMARK  110  A    between atoms: _257  and  _260
REMARK  111  A    between atoms: _260  and  _261
REMARK  112  A    between atoms: _261  and  _262
REMARK  113  A    between atoms: _267  and  _269
REMARK  114  A    between atoms: _269  and  _270
REMARK  115  A    between atoms: _269  and  _272
REMARK  116  A    between atoms: _272  and  _273
REMARK  117  A    between atoms: _273  and  _274
REMARK  118  A    between atoms: _274  and  _275
REMARK  119  A    between atoms: _284  and  _286
REMARK  120  A    between atoms: _286  and  _287
REMARK  121  A    between atoms: _286  and  _289
REMARK  122  A    between atoms: _289  and  _290
REMARK  123  A    between atoms: _295  and  _297
REMARK  124  A    between atoms: _297  and  _298
REMARK  125  A    between atoms: _297  and  _300
REMARK  126  A    between atoms: _303  and  _305
REMARK  127  A    between atoms: _305  and  _306
REMARK  128  A    between atoms: _305  and  _308
REMARK  129  A    between atoms: _308  and  _309
REMARK  130  A    between atoms: _314  and  _316
REMARK  131  A    between atoms: _316  and  _317
REMARK  132  A    between atoms: _316  and  _319
REMARK  133  A    between atoms: _319  and  _320
REMARK  134  A    between atoms: _323  and  _325
REMARK  135  A    between atoms: _325  and  _326
REMARK  136  A    between atoms: _325  and  _328
REMARK  137  A    between atoms: _328  and  _329
REMARK  138  A    between atoms: _335  and  _337
REMARK  139  A    between atoms: _337  and  _338
REMARK  140  A    between atoms: _337  and  _340
REMARK  141  A    between atoms: _340  and  _341
REMARK  142  A    between atoms: _341  and  _342
REMARK  143  A    between atoms: _342  and  _343
REMARK  144  A    between atoms: _343  and  _344
REMARK  145  A    between atoms: _348  and  _350
REMARK  146  A    between atoms: _350  and  _351
REMARK  147  A    between atoms: _350  and  _353
REMARK  148  A    between atoms: _353  and  _354
REMARK  149  A    between atoms: _360  and  _362
REMARK  150  A    between atoms: _362  and  _363
REMARK  151  A    between atoms: _362  and  _365
REMARK  152  A    between atoms: _365  and  _366
REMARK  153  A    between atoms: _369  and  _371
REMARK  154  A    between atoms: _371  and  _372
REMARK  155  A    between atoms: _371  and  _374
REMARK  156  A    between atoms: _374  and  _375
REMARK  157  A    between atoms: _378  and  _380
REMARK  158  A    between atoms: _380  and  _381
REMARK  159  A    between atoms: _380  and  _383
REMARK  160  A    between atoms: _383  and  _384
REMARK  161  A    between atoms: _389  and  _391
REMARK  162  A    between atoms: _391  and  _392
REMARK  163  A    between atoms: _391  and  _394
REMARK  164  A    between atoms: _394  and  _395
REMARK  165  A    between atoms: _398  and  _400
REMARK  166  A    between atoms: _400  and  _401
REMARK  167  A    between atoms: _400  and  _403
REMARK  168  A    between atoms: _406  and  _408
REMARK  169  A    between atoms: _408  and  _409
REMARK  170  A    between atoms: _408  and  _411
REMARK  171  A    between atoms: _414  and  _416
REMARK  172  A    between atoms: _416  and  _417
REMARK  173  A    between atoms: _416  and  _419
REMARK  174  A    between atoms: _419  and  _420
REMARK  175  A    between atoms: _422  and  _424
REMARK  176  A    between atoms: _424  and  _425
REMARK  177  A    between atoms: _424  and  _427
REMARK  178  A    between atoms: _427  and  _428
REMARK  179  A    between atoms: _433  and  _435
REMARK  180  A    between atoms: _435  and  _436
REMARK  181  A    between atoms: _435  and  _438
REMARK  182  A    between atoms: _441  and  _443
REMARK  183  A    between atoms: _443  and  _444
REMARK  184  A    between atoms: _443  and  _446
REMARK  185  A    between atoms: _446  and  _447
REMARK  186  A    between atoms: _450  and  _452
REMARK  187  A    between atoms: _452  and  _453
REMARK  188  A    between atoms: _452  and  _455
REMARK  189  A    between atoms: _455  and  _456
REMARK  190  A    between atoms: _458  and  _460
REMARK  191  A    between atoms: _460  and  _461
REMARK  192  A    between atoms: _463  and  _465
REMARK  193  A    between atoms: _465  and  _466
REMARK  194  A    between atoms: _465  and  _468
REMARK  195  A    between atoms: _468  and  _469
REMARK  196  A    between atoms: _472  and  _474
REMARK  197  A    between atoms: _474  and  _475
REMARK  198  A    between atoms: _474  and  _477
REMARK  199  A    between atoms: _477  and  _478
REMARK  200  A    between atoms: _481  and  _483
REMARK  201  A    between atoms: _483  and  _484
REMARK  202  A    between atoms: _483  and  _486
REMARK  203  A    between atoms: _486  and  _487
REMARK  204  A    between atoms: _487  and  _488
REMARK  205  A    between atoms: _488  and  _489
REMARK  206  A    between atoms: _498  and  _500
REMARK  207  A    between atoms: _500  and  _501
REMARK  208  A    between atoms: _500  and  _503
REMARK  209  A    between atoms: _503  and  _504
REMARK  210  A    between atoms: _509  and  _511
REMARK  211  A    between atoms: _511  and  _512
REMARK  212  A    between atoms: _514  and  _516
REMARK  213  A    between atoms: _516  and  _517
REMARK  214  A    between atoms: _516  and  _519
REMARK  215  A    between atoms: _522  and  _524
REMARK  216  A    between atoms: _524  and  _525
REMARK  217  A    between atoms: _524  and  _527
REMARK  218  A    between atoms: _530  and  _532
REMARK  219  A    between atoms: _532  and  _533
REMARK  220  A    between atoms: _532  and  _535
REMARK  221  A    between atoms: _535  and  _536
REMARK  222  A    between atoms: _539  and  _541
REMARK  223  A    between atoms: _541  and  _542
REMARK  224  A    between atoms: _541  and  _544
REMARK  225  A    between atoms: _544  and  _545
REMARK  226  A    between atoms: _547  and  _549
REMARK  227  A    between atoms: _549  and  _550
REMARK  228  A    between atoms: _553  and  _555
REMARK  229  A    between atoms: _555  and  _556
REMARK  230  A    between atoms: _555  and  _558
REMARK  231  A    between atoms: _558  and  _559
REMARK  232  A    between atoms: _564  and  _565
REMARK  233  A    between atoms: _567  and  _569
REMARK  234  A    between atoms: _569  and  _570
REMARK  235  A    between atoms: _569  and  _572
REMARK  236  A    between atoms: _572  and  _573
REMARK  237  A    between atoms: _573  and  _574
REMARK  238  A    between atoms: _577  and  _579
REMARK  239  A    between atoms: _579  and  _580
REMARK  240  A    between atoms: _579  and  _582
REMARK  241  A    between atoms: _585  and  _587
REMARK  242  A    between atoms: _587  and  _588
REMARK  243  A    between atoms: _587  and  _590
REMARK  244  A    between atoms: _590  and  _591
REMARK  245  A    between atoms: _594  and  _596
REMARK  246  A    between atoms: _596  and  _597
REMARK  247  A    between atoms: _599  and  _601
REMARK  248  A    between atoms: _601  and  _602
REMARK  249  A    between atoms: _601  and  _604
REMARK  250  A    between atoms: _604  and  _605
REMARK  251  A    between atoms: _610  and  _611
REMARK  252  A    between atoms: _613  and  _615
REMARK  253  A    between atoms: _615  and  _616
REMARK  254  A    between atoms: _615  and  _618
REMARK  255  A    between atoms: _618  and  _619
REMARK  256  A    between atoms: _622  and  _624
REMARK  257  A    between atoms: _624  and  _625
REMARK  258  A    between atoms: _624  and  _627
REMARK  259  A    between atoms: _627  and  _628
REMARK  260  A    between atoms: _631  and  _633
REMARK  261  A    between atoms: _633  and  _634
REMARK  262  A    between atoms: _637  and  _639
REMARK  263  A    between atoms: _639  and  _640
REMARK  264  A    between atoms: _639  and  _642
REMARK  265  A    between atoms: _642  and  _643
REMARK  266  A    between atoms: _646  and  _648
REMARK  267  A    between atoms: _648  and  _649
REMARK  268  A    between atoms: _651  and  _653
REMARK  269  A    between atoms: _653  and  _654
REMARK  270  A    between atoms: _653  and  _656
REMARK  271  A    between atoms: _656  and  _657
REMARK  272  A    between atoms: _659  and  _661
REMARK  273  A    between atoms: _661  and  _662
REMARK  274  A    between atoms: _661  and  _664
REMARK  275  A    between atoms: _667  and  _669
REMARK  276  A    between atoms: _669  and  _670
REMARK  277  A    between atoms: _669  and  _672
REMARK  278  A    between atoms: _672  and  _673
REMARK  279  A    between atoms: _676  and  _678
REMARK  280  A    between atoms: _678  and  _679
REMARK  281  A    between atoms: _678  and  _681
REMARK  282  A    between atoms: _681  and  _682
REMARK                            x       y       z     vdW  Elec       q    Type
REMARK                         _______ _______ _______ _____ _____    ______ ____
ROOT
ATOM      1  O   HOH     1      11.428   7.608  47.714  0.00  0.00    +0.000 OA
ENDROOT
TORSDOF 0
REMARK  Name = ../refined-set-2016/4i9h/4i9h_pocket.pdb
REMARK  282 active torsions:
REMARK  status: ('A' for Active; 'I' for Inactive)
REMARK    1  A    between atoms: _1  and  _3
REMARK    2  A    between atoms: _3  and  _4
REMARK    3  A    between atoms: _3  and  _6
REMARK    4  A    between atoms: _9  and  _11
REMARK    5  A    between atoms: _11  and  _12
REMARK    6  A    between atoms: _11  and  _14
REMARK    7  A    between atoms: _17  and  _19
REMARK    8  A    between atoms: _19  and  _20
REMARK    9  A    between atoms: _22  and  _24
REMARK   10  A    between atoms: _24  and  _25
REMARK   11  A    between atoms: _24  and  _27
REMARK   12  A    between atoms: _30  and  _32
REMARK   13  A    between atoms: _32  and  _33
REMARK   14  A    between atoms: _35  and  _37
REMARK   15  A    between atoms: _37  and  _38
REMARK   16  A    between atoms: _41  and  _43
REMARK   17  A    between atoms: _43  and  _44
REMARK   18  A    between atoms: _43  and  _46
REMARK   19  A    between atoms: _49  and  _51
REMARK   20  A    between atoms: _51  and  _52
REMARK   21  A    between atoms: _54  and  _56
REMARK   22  A    between atoms: _56  and  _57
REMARK   23  A    between atoms: _56  and  _59
REMARK   24  A    between atoms: _59  and  _60
REMARK   25  A    between atoms: _60  and  _61
REMARK   26  A    between atoms: _63  and  _65
REMARK   27  A    between atoms: _65  and  _66
REMARK   28  A    between atoms: _65  and  _68
REMARK   29  A    between atoms: _70  and  _72
REMARK   30  A    between atoms: _72  and  _73
REMARK   31  A    between atoms: _72  and  _75
REMARK   32  A    between atoms: _75  and  _76
REMARK   33  A    between atoms: _79  and  _81
REMARK   34  A    between atoms: _81  and  _82
REMARK   35  A    between atoms: _81  and  _84
REMARK   36  A    between atoms: _87  and  _89
REMARK   37  A    between atoms: _89  and  _90
REMARK   38  A    between atoms: _89  and  _92
REMARK   39  A    between atoms: _92  and  _93
REMARK   40  A    between atoms: _96  and  _98
REMARK   41  A    between atoms: _98  and  _99
REMARK   42  A    between atoms: _98  and  _101
REMARK   43  A    between atoms: _104  and  _106
REMARK   44  A    between atoms: _106  and  _107
REMARK   45  A    between atoms: _106  and  _109
REMARK   46  A    between atoms: _109  and  _110
REMARK   47  A    between atoms: _110  and  _111
REMARK   48  A    between atoms: _113  and  _115
REMARK   49  A    between atoms: _115  and  _116
REMARK   50  A    between atoms: _115  and  _118
REMARK   51  A    between atoms: _118  and  _119
REMARK   52  A    between atoms: _119  and  _120
REMARK   53  A    between atoms: _120  and  _121
REMARK   54  A    between atoms: _121  and  _122
REMARK   55  A    between atoms: _126  and  _128
REMARK   56  A    between atoms: _128  and  _129
REMARK   57  A    between atoms: _128  and  _131
REMARK   58  A    between atoms: _131  and  _132
REMARK   59  A    between atoms: _135  and  _137
REMARK   60  A    between atoms: _137  and  _138
REMARK   61  A    between atoms: _137  and  _140
REMARK   62  A    between atoms: _140  and  _141
REMARK   63  A    between atoms: _141  and  _142
REMARK   64  A    between atoms: _142  and  _143
REMARK   65  A    between atoms: _143  and  _144
REMARK   66  A    between atoms: _148  and  _150
REMARK   67  A    between atoms: _150  and  _151
REMARK   68  A    between atoms: _150  and  _153
REMARK   69  A    between atoms: _153  and  _154
REMARK   70  A    between atoms: _159  and  _160
REMARK   71  A    between atoms: _162  and  _164
REMARK   72  A    between atoms: _164  and  _165
REMARK   73  A    between atoms: _164  and  _167
REMARK   74  A    between atoms: _167  and  _168
REMARK   75  A    between atoms: _171  and  _173
REMARK   76  A    between atoms: _173  and  _174
REMARK   77  A    between atoms: _173  and  _176
REMARK   78  A    between atoms: _176  and  _177
REMARK   79  A    between atoms: _180  and  _182
REMARK   80  A    between atoms: _182  and  _183
REMARK   81  A    between atoms: _182  and  _185
REMARK   82  A    between atoms: _185  and  _186
REMARK   83  A    between atoms: _189  and  _191
REMARK   84  A    between atoms: _191  and  _192
REMARK   85  A    between atoms: _195  and  _197
REMARK   86  A    between atoms: _197  and  _198
REMARK   87  A    between atoms: _200  and  _202
REMARK   88  A    between atoms: _202  and  _203
REMARK   89  A    between atoms: _206  and  _208
REMARK   90  A    between atoms: _208  and  _209
REMARK   91  A    between atoms: _208  and  _211
REMARK   92  A    between atoms: _211  and  _212
REMARK   93  A    between atoms: _212  and  _213
REMARK   94  A    between atoms: _213  and  _214
REMARK   95  A    between atoms: _223  and  _225
REMARK   96  A    between atoms: _225  and  _226
REMARK   97  A    between atoms: _225  and  _228
REMARK   98  A    between atoms: _228  and  _229
REMARK   99  A    between atoms: _229  and  _230
REMARK  100  A    between atoms: _235  and  _237
REMARK  101  A    between atoms: _237  and  _238
REMARK  102  A    between atoms: _237  and  _240
REMARK  103  A    between atoms: _240  and  _241
REMARK  104  A    between atoms: _246  and  _248
REMARK  105  A    between atoms: _248  and  _249
REMARK  106  A    between atoms: _248  and  _251
REMARK  107  A    between atoms: _251  and  _252
REMARK  108  A    between atoms: _255  and  _257
REMARK  109  A    between atoms: _257  and  _258
REMARK  110  A    between atoms: _257  and  _260
REMARK  111  A    between atoms: _260  and  _261
REMARK  112  A    between atoms: _261  and  _262
REMARK  113  A    between atoms: _267  and  _269
REMARK  114  A    between atoms: _269  and  _270
REMARK  115  A    between atoms: _269  and  _272
REMARK  116  A    between atoms: _272  and  _273
REMARK  117  A    between atoms: _273  and  _274
REMARK  118  A    between atoms: _274  and  _275
REMARK  119  A    between atoms: _284  and  _286
REMARK  120  A    between atoms: _286  and  _287
REMARK  121  A    between atoms: _286  and  _289
REMARK  122  A    between atoms: _289  and  _290
REMARK  123  A    between atoms: _295  and  _297
REMARK  124  A    between atoms: _297  and  _298
REMARK  125  A    between atoms: _297  and  _300
REMARK  126  A    between atoms: _303  and  _305
REMARK  127  A    between atoms: _305  and  _306
REMARK  128  A    between atoms: _305  and  _308
REMARK  129  A    between atoms: _308  and  _309
REMARK  130  A    between atoms: _314  and  _316
REMARK  131  A    between atoms: _316  and  _317
REMARK  132  A    between atoms: _316  and  _319
REMARK  133  A    between atoms: _319  and  _320
REMARK  134  A    between atoms: _323  and  _325
REMARK  135  A    between atoms: _325  and  _326
REMARK  136  A    between atoms: _325  and  _328
REMARK  137  A    between atoms: _328  and  _329
REMARK  138  A    between atoms: _335  and  _337
REMARK  139  A    between atoms: _337  and  _338
REMARK  140  A    between atoms: _337  and  _340
REMARK  141  A    between atoms: _340  and  _341
REMARK  142  A    between atoms: _341  and  _342
REMARK  143  A    between atoms: _342  and  _343
REMARK  144  A    between atoms: _343  and  _344
REMARK  145  A    between atoms: _348  and  _350
REMARK  146  A    between atoms: _350  and  _351
REMARK  147  A    between atoms: _350  and  _353
REMARK  148  A    between atoms: _353  and  _354
REMARK  149  A    between atoms: _360  and  _362
REMARK  150  A    between atoms: _362  and  _363
REMARK  151  A    between atoms: _362  and  _365
REMARK  152  A    between atoms: _365  and  _366
REMARK  153  A    between atoms: _369  and  _371
REMARK  154  A    between atoms: _371  and  _372
REMARK  155  A    between atoms: _371  and  _374
REMARK  156  A    between atoms: _374  and  _375
REMARK  157  A    between atoms: _378  and  _380
REMARK  158  A    between atoms: _380  and  _381
REMARK  159  A    between atoms: _380  and  _383
REMARK  160  A    between atoms: _383  and  _384
REMARK  161  A    between atoms: _389  and  _391
REMARK  162  A    between atoms: _391  and  _392
REMARK  163  A    between atoms: _391  and  _394
REMARK  164  A    between atoms: _394  and  _395
REMARK  165  A    between atoms: _398  and  _400
REMARK  166  A    between atoms: _400  and  _401
REMARK  167  A    between atoms: _400  and  _403
REMARK  168  A    between atoms: _406  and  _408
REMARK  169  A    between atoms: _408  and  _409
REMARK  170  A    between atoms: _408  and  _411
REMARK  171  A    between atoms: _414  and  _416
REMARK  172  A    between atoms: _416  and  _417
REMARK  173  A    between atoms: _416  and  _419
REMARK  174  A    between atoms: _419  and  _420
REMARK  175  A    between atoms: _422  and  _424
REMARK  176  A    between atoms: _424  and  _425
REMARK  177  A    between atoms: _424  and  _427
REMARK  178  A    between atoms: _427  and  _428
REMARK  179  A    between atoms: _433  and  _435
REMARK  180  A    between atoms: _435  and  _436
REMARK  181  A    between atoms: _435  and  _438
REMARK  182  A    between atoms: _441  and  _443
REMARK  183  A    between atoms: _443  and  _444
REMARK  184  A    between atoms: _443  and  _446
REMARK  185  A    between atoms: _446  and  _447
REMARK  186  A    between atoms: _450  and  _452
REMARK  187  A    between atoms: _452  and  _453
REMARK  188  A    between atoms: _452  and  _455
REMARK  189  A    between atoms: _455  and  _456
REMARK  190  A    between atoms: _458  and  _460
REMARK  191  A    between atoms: _460  and  _461
REMARK  192  A    between atoms: _463  and  _465
REMARK  193  A    between atoms: _465  and  _466
REMARK  194  A    between atoms: _465  and  _468
REMARK  195  A    between atoms: _468  and  _469
REMARK  196  A    between atoms: _472  and  _474
REMARK  197  A    between atoms: _474  and  _475
REMARK  198  A    between atoms: _474  and  _477
REMARK  199  A    between atoms: _477  and  _478
REMARK  200  A    between atoms: _481  and  _483
REMARK  201  A    between atoms: _483  and  _484
REMARK  202  A    between atoms: _483  and  _486
REMARK  203  A    between atoms: _486  and  _487
REMARK  204  A    between atoms: _487  and  _488
REMARK  205  A    between atoms: _488  and  _489
REMARK  206  A    between atoms: _498  and  _500
REMARK  207  A    between atoms: _500  and  _501
REMARK  208  A    between atoms: _500  and  _503
REMARK  209  A    between atoms: _503  and  _504
REMARK  210  A    between atoms: _509  and  _511
REMARK  211  A    between atoms: _511  and  _512
REMARK  212  A    between atoms: _514  and  _516
REMARK  213  A    between atoms: _516  and  _517
REMARK  214  A    between atoms: _516  and  _519
REMARK  215  A    between atoms: _522  and  _524
REMARK  216  A    between atoms: _524  and  _525
REMARK  217  A    between atoms: _524  and  _527
REMARK  218  A    between atoms: _530  and  _532
REMARK  219  A    between atoms: _532  and  _533
REMARK  220  A    between atoms: _532  and  _535
REMARK  221  A    between atoms: _535  and  _536
REMARK  222  A    between atoms: _539  and  _541
REMARK  223  A    between atoms: _541  and  _542
REMARK  224  A    between atoms: _541  and  _544
REMARK  225  A    between atoms: _544  and  _545
REMARK  226  A    between atoms: _547  and  _549
REMARK  227  A    between atoms: _549  and  _550
REMARK  228  A    between atoms: _553  and  _555
REMARK  229  A    between atoms: _555  and  _556
REMARK  230  A    between atoms: _555  and  _558
REMARK  231  A    between atoms: _558  and  _559
REMARK  232  A    between atoms: _564  and  _565
REMARK  233  A    between atoms: _567  and  _569
REMARK  234  A    between atoms: _569  and  _570
REMARK  235  A    between atoms: _569  and  _572
REMARK  236  A    between atoms: _572  and  _573
REMARK  237  A    between atoms: _573  and  _574
REMARK  238  A    between atoms: _577  and  _579
REMARK  239  A    between atoms: _579  and  _580
REMARK  240  A    between atoms: _579  and  _582
REMARK  241  A    between atoms: _585  and  _587
REMARK  242  A    between atoms: _587  and  _588
REMARK  243  A    between atoms: _587  and  _590
REMARK  244  A    between atoms: _590  and  _591
REMARK  245  A    between atoms: _594  and  _596
REMARK  246  A    between atoms: _596  and  _597
REMARK  247  A    between atoms: _599  and  _601
REMARK  248  A    between atoms: _601  and  _602
REMARK  249  A    between atoms: _601  and  _604
REMARK  250  A    between atoms: _604  and  _605
REMARK  251  A    between atoms: _610  and  _611
REMARK  252  A    between atoms: _613  and  _615
REMARK  253  A    between atoms: _615  and  _616
REMARK  254  A    between atoms: _615  and  _618
REMARK  255  A    between atoms: _618  and  _619
REMARK  256  A    between atoms: _622  and  _624
REMARK  257  A    between atoms: _624  and  _625
REMARK  258  A    between atoms: _624  and  _627
REMARK  259  A    between atoms: _627  and  _628
REMARK  260  A    between atoms: _631  and  _633
REMARK  261  A    between atoms: _633  and  _634
REMARK  262  A    between atoms: _637  and  _639
REMARK  263  A    between atoms: _639  and  _640
REMARK  264  A    between atoms: _639  and  _642
REMARK  265  A    between atoms: _642  and  _643
REMARK  266  A    between atoms: _646  and  _648
REMARK  267  A    between atoms: _648  and  _649
REMARK  268  A    between atoms: _651  and  _653
REMARK  269  A    between atoms: _653  and  _654
REMARK  270  A    between atoms: _653  and  _656
REMARK  271  A    between atoms: _656  and  _657
REMARK  272  A    between atoms: _659  and  _661
REMARK  273  A    between atoms: _661  and  _662
REMARK  274  A    between atoms: _661  and  _664
REMARK  275  A    between atoms: _667  and  _669
REMARK  276  A    between atoms: _669  and  _670
REMARK  277  A    between atoms: _669  and  _672
REMARK  278  A    between atoms: _672  and  _673
REMARK  279  A    between atoms: _676  and  _678
REMARK  280  A    between atoms: _678  and  _679
REMARK  281  A    between atoms: _678  and  _681
REMARK  282  A    between atoms: _681  and  _682
REMARK                            x       y       z     vdW  Elec       q    Type
REMARK                         _______ _______ _______ _____ _____    ______ ____
ROOT
ATOM      1  O   HOH     1      14.452  19.111  38.613  0.00  0.00    +0.000 OA
ENDROOT
TORSDOF 0
REMARK  Name = ../refined-set-2016/4i9h/4i9h_pocket.pdb
REMARK  282 active torsions:
REMARK  status: ('A' for Active; 'I' for Inactive)
REMARK    1  A    between atoms: _1  and  _3
REMARK    2  A    between atoms: _3  and  _4
REMARK    3  A    between atoms: _3  and  _6
REMARK    4  A    between atoms: _9  and  _11
REMARK    5  A    between atoms: _11  and  _12
REMARK    6  A    between atoms: _11  and  _14
REMARK    7  A    between atoms: _17  and  _19
REMARK    8  A    between atoms: _19  and  _20
REMARK    9  A    between atoms: _22  and  _24
REMARK   10  A    between atoms: _24  and  _25
REMARK   11  A    between atoms: _24  and  _27
REMARK   12  A    between atoms: _30  and  _32
REMARK   13  A    between atoms: _32  and  _33
REMARK   14  A    between atoms: _35  and  _37
REMARK   15  A    between atoms: _37  and  _38
REMARK   16  A    between atoms: _41  and  _43
REMARK   17  A    between atoms: _43  and  _44
REMARK   18  A    between atoms: _43  and  _46
REMARK   19  A    between atoms: _49  and  _51
REMARK   20  A    between atoms: _51  and  _52
REMARK   21  A    between atoms: _54  and  _56
REMARK   22  A    between atoms: _56  and  _57
REMARK   23  A    between atoms: _56  and  _59
REMARK   24  A    between atoms: _59  and  _60
REMARK   25  A    between atoms: _60  and  _61
REMARK   26  A    between atoms: _63  and  _65
REMARK   27  A    between atoms: _65  and  _66
REMARK   28  A    between atoms: _65  and  _68
REMARK   29  A    between atoms: _70  and  _72
REMARK   30  A    between atoms: _72  and  _73
REMARK   31  A    between atoms: _72  and  _75
REMARK   32  A    between atoms: _75  and  _76
REMARK   33  A    between atoms: _79  and  _81
REMARK   34  A    between atoms: _81  and  _82
REMARK   35  A    between atoms: _81  and  _84
REMARK   36  A    between atoms: _87  and  _89
REMARK   37  A    between atoms: _89  and  _90
REMARK   38  A    between atoms: _89  and  _92
REMARK   39  A    between atoms: _92  and  _93
REMARK   40  A    between atoms: _96  and  _98
REMARK   41  A    between atoms: _98  and  _99
REMARK   42  A    between atoms: _98  and  _101
REMARK   43  A    between atoms: _104  and  _106
REMARK   44  A    between atoms: _106  and  _107
REMARK   45  A    between atoms: _106  and  _109
REMARK   46  A    between atoms: _109  and  _110
REMARK   47  A    between atoms: _110  and  _111
REMARK   48  A    between atoms: _113  and  _115
REMARK   49  A    between atoms: _115  and  _116
REMARK   50  A    between atoms: _115  and  _118
REMARK   51  A    between atoms: _118  and  _119
REMARK   52  A    between atoms: _119  and  _120
REMARK   53  A    between atoms: _120  and  _121
REMARK   54  A    between atoms: _121  and  _122
REMARK   55  A    between atoms: _126  and  _128
REMARK   56  A    between atoms: _128  and  _129
REMARK   57  A    between atoms: _128  and  _131
REMARK   58  A    between atoms: _131  and  _132
REMARK   59  A    between atoms: _135  and  _137
REMARK   60  A    between atoms: _137  and  _138
REMARK   61  A    between atoms: _137  and  _140
REMARK   62  A    between atoms: _140  and  _141
REMARK   63  A    between atoms: _141  and  _142
REMARK   64  A    between atoms: _142  and  _143
REMARK   65  A    between atoms: _143  and  _144
REMARK   66  A    between atoms: _148  and  _150
REMARK   67  A    between atoms: _150  and  _151
REMARK   68  A    between atoms: _150  and  _153
REMARK   69  A    between atoms: _153  and  _154
REMARK   70  A    between atoms: _159  and  _160
REMARK   71  A    between atoms: _162  and  _164
REMARK   72  A    between atoms: _164  and  _165
REMARK   73  A    between atoms: _164  and  _167
REMARK   74  A    between atoms: _167  and  _168
REMARK   75  A    between atoms: _171  and  _173
REMARK   76  A    between atoms: _173  and  _174
REMARK   77  A    between atoms: _173  and  _176
REMARK   78  A    between atoms: _176  and  _177
REMARK   79  A    between atoms: _180  and  _182
REMARK   80  A    between atoms: _182  and  _183
REMARK   81  A    between atoms: _182  and  _185
REMARK   82  A    between atoms: _185  and  _186
REMARK   83  A    between atoms: _189  and  _191
REMARK   84  A    between atoms: _191  and  _192
REMARK   85  A    between atoms: _195  and  _197
REMARK   86  A    between atoms: _197  and  _198
REMARK   87  A    between atoms: _200  and  _202
REMARK   88  A    between atoms: _202  and  _203
REMARK   89  A    between atoms: _206  and  _208
REMARK   90  A    between atoms: _208  and  _209
REMARK   91  A    between atoms: _208  and  _211
REMARK   92  A    between atoms: _211  and  _212
REMARK   93  A    between atoms: _212  and  _213
REMARK   94  A    between atoms: _213  and  _214
REMARK   95  A    between atoms: _223  and  _225
REMARK   96  A    between atoms: _225  and  _226
REMARK   97  A    between atoms: _225  and  _228
REMARK   98  A    between atoms: _228  and  _229
REMARK   99  A    between atoms: _229  and  _230
REMARK  100  A    between atoms: _235  and  _237
REMARK  101  A    between atoms: _237  and  _238
REMARK  102  A    between atoms: _237  and  _240
REMARK  103  A    between atoms: _240  and  _241
REMARK  104  A    between atoms: _246  and  _248
REMARK  105  A    between atoms: _248  and  _249
REMARK  106  A    between atoms: _248  and  _251
REMARK  107  A    between atoms: _251  and  _252
REMARK  108  A    between atoms: _255  and  _257
REMARK  109  A    between atoms: _257  and  _258
REMARK  110  A    between atoms: _257  and  _260
REMARK  111  A    between atoms: _260  and  _261
REMARK  112  A    between atoms: _261  and  _262
REMARK  113  A    between atoms: _267  and  _269
REMARK  114  A    between atoms: _269  and  _270
REMARK  115  A    between atoms: _269  and  _272
REMARK  116  A    between atoms: _272  and  _273
REMARK  117  A    between atoms: _273  and  _274
REMARK  118  A    between atoms: _274  and  _275
REMARK  119  A    between atoms: _284  and  _286
REMARK  120  A    between atoms: _286  and  _287
REMARK  121  A    between atoms: _286  and  _289
REMARK  122  A    between atoms: _289  and  _290
REMARK  123  A    between atoms: _295  and  _297
REMARK  124  A    between atoms: _297  and  _298
REMARK  125  A    between atoms: _297  and  _300
REMARK  126  A    between atoms: _303  and  _305
REMARK  127  A    between atoms: _305  and  _306
REMARK  128  A    between atoms: _305  and  _308
REMARK  129  A    between atoms: _308  and  _309
REMARK  130  A    between atoms: _314  and  _316
REMARK  131  A    between atoms: _316  and  _317
REMARK  132  A    between atoms: _316  and  _319
REMARK  133  A    between atoms: _319  and  _320
REMARK  134  A    between atoms: _323  and  _325
REMARK  135  A    between atoms: _325  and  _326
REMARK  136  A    between atoms: _325  and  _328
REMARK  137  A    between atoms: _328  and  _329
REMARK  138  A    between atoms: _335  and  _337
REMARK  139  A    between atoms: _337  and  _338
REMARK  140  A    between atoms: _337  and  _340
REMARK  141  A    between atoms: _340  and  _341
REMARK  142  A    between atoms: _341  and  _342
REMARK  143  A    between atoms: _342  and  _343
REMARK  144  A    between atoms: _343  and  _344
REMARK  145  A    between atoms: _348  and  _350
REMARK  146  A    between atoms: _350  and  _351
REMARK  147  A    between atoms: _350  and  _353
REMARK  148  A    between atoms: _353  and  _354
REMARK  149  A    between atoms: _360  and  _362
REMARK  150  A    between atoms: _362  and  _363
REMARK  151  A    between atoms: _362  and  _365
REMARK  152  A    between atoms: _365  and  _366
REMARK  153  A    between atoms: _369  and  _371
REMARK  154  A    between atoms: _371  and  _372
REMARK  155  A    between atoms: _371  and  _374
REMARK  156  A    between atoms: _374  and  _375
REMARK  157  A    between atoms: _378  and  _380
REMARK  158  A    between atoms: _380  and  _381
REMARK  159  A    between atoms: _380  and  _383
REMARK  160  A    between atoms: _383  and  _384
REMARK  161  A    between atoms: _389  and  _391
REMARK  162  A    between atoms: _391  and  _392
REMARK  163  A    between atoms: _391  and  _394
REMARK  164  A    between atoms: _394  and  _395
REMARK  165  A    between atoms: _398  and  _400
REMARK  166  A    between atoms: _400  and  _401
REMARK  167  A    between atoms: _400  and  _403
REMARK  168  A    between atoms: _406  and  _408
REMARK  169  A    between atoms: _408  and  _409
REMARK  170  A    between atoms: _408  and  _411
REMARK  171  A    between atoms: _414  and  _416
REMARK  172  A    between atoms: _416  and  _417
REMARK  173  A    between atoms: _416  and  _419
REMARK  174  A    between atoms: _419  and  _420
REMARK  175  A    between atoms: _422  and  _424
REMARK  176  A    between atoms: _424  and  _425
REMARK  177  A    between atoms: _424  and  _427
REMARK  178  A    between atoms: _427  and  _428
REMARK  179  A    between atoms: _433  and  _435
REMARK  180  A    between atoms: _435  and  _436
REMARK  181  A    between atoms: _435  and  _438
REMARK  182  A    between atoms: _441  and  _443
REMARK  183  A    between atoms: _443  and  _444
REMARK  184  A    between atoms: _443  and  _446
REMARK  185  A    between atoms: _446  and  _447
REMARK  186  A    between atoms: _450  and  _452
REMARK  187  A    between atoms: _452  and  _453
REMARK  188  A    between atoms: _452  and  _455
REMARK  189  A    between atoms: _455  and  _456
REMARK  190  A    between atoms: _458  and  _460
REMARK  191  A    between atoms: _460  and  _461
REMARK  192  A    between atoms: _463  and  _465
REMARK  193  A    between atoms: _465  and  _466
REMARK  194  A    between atoms: _465  and  _468
REMARK  195  A    between atoms: _468  and  _469
REMARK  196  A    between atoms: _472  and  _474
REMARK  197  A    between atoms: _474  and  _475
REMARK  198  A    between atoms: _474  and  _477
REMARK  199  A    between atoms: _477  and  _478
REMARK  200  A    between atoms: _481  and  _483
REMARK  201  A    between atoms: _483  and  _484
REMARK  202  A    between atoms: _483  and  _486
REMARK  203  A    between atoms: _486  and  _487
REMARK  204  A    between atoms: _487  and  _488
REMARK  205  A    between atoms: _488  and  _489
REMARK  206  A    between atoms: _498  and  _500
REMARK  207  A    between atoms: _500  and  _501
REMARK  208  A    between atoms: _500  and  _503
REMARK  209  A    between atoms: _503  and  _504
REMARK  210  A    between atoms: _509  and  _511
REMARK  211  A    between atoms: _511  and  _512
REMARK  212  A    between atoms: _514  and  _516
REMARK  213  A    between atoms: _516  and  _517
REMARK  214  A    between atoms: _516  and  _519
REMARK  215  A    between atoms: _522  and  _524
REMARK  216  A    between atoms: _524  and  _525
REMARK  217  A    between atoms: _524  and  _527
REMARK  218  A    between atoms: _530  and  _532
REMARK  219  A    between atoms: _532  and  _533
REMARK  220  A    between atoms: _532  and  _535
REMARK  221  A    between atoms: _535  and  _536
REMARK  222  A    between atoms: _539  and  _541
REMARK  223  A    between atoms: _541  and  _542
REMARK  224  A    between atoms: _541  and  _544
REMARK  225  A    between atoms: _544  and  _545
REMARK  226  A    between atoms: _547  and  _549
REMARK  227  A    between atoms: _549  and  _550
REMARK  228  A    between atoms: _553  and  _555
REMARK  229  A    between atoms: _555  and  _556
REMARK  230  A    between atoms: _555  and  _558
REMARK  231  A    between atoms: _558  and  _559
REMARK  232  A    between atoms: _564  and  _565
REMARK  233  A    between atoms: _567  and  _569
REMARK  234  A    between atoms: _569  and  _570
REMARK  235  A    between atoms: _569  and  _572
REMARK  236  A    between atoms: _572  and  _573
REMARK  237  A    between atoms: _573  and  _574
REMARK  238  A    between atoms: _577  and  _579
REMARK  239  A    between atoms: _579  and  _580
REMARK  240  A    between atoms: _579  and  _582
REMARK  241  A    between atoms: _585  and  _587
REMARK  242  A    between atoms: _587  and  _588
REMARK  243  A    between atoms: _587  and  _590
REMARK  244  A    between atoms: _590  and  _591
REMARK  245  A    between atoms: _594  and  _596
REMARK  246  A    between atoms: _596  and  _597
REMARK  247  A    between atoms: _599  and  _601
REMARK  248  A    between atoms: _601  and  _602
REMARK  249  A    between atoms: _601  and  _604
REMARK  250  A    between atoms: _604  and  _605
REMARK  251  A    between atoms: _610  and  _611
REMARK  252  A    between atoms: _613  and  _615
REMARK  253  A    between atoms: _615  and  _616
REMARK  254  A    between atoms: _615  and  _618
REMARK  255  A    between atoms: _618  and  _619
REMARK  256  A    between atoms: _622  and  _624
REMARK  257  A    between atoms: _624  and  _625
REMARK  258  A    between atoms: _624  and  _627
REMARK  259  A    between atoms: _627  and  _628
REMARK  260  A    between atoms: _631  and  _633
REMARK  261  A    between atoms: _633  and  _634
REMARK  262  A    between atoms: _637  and  _639
REMARK  263  A    between atoms: _639  and  _640
REMARK  264  A    between atoms: _639  and  _642
REMARK  265  A    between atoms: _642  and  _643
REMARK  266  A    between atoms: _646  and  _648
REMARK  267  A    between atoms: _648  and  _649
REMARK  268  A    between atoms: _651  and  _653
REMARK  269  A    between atoms: _653  and  _654
REMARK  270  A    between atoms: _653  and  _656
REMARK  271  A    between atoms: _656  and  _657
REMARK  272  A    between atoms: _659  and  _661
REMARK  273  A    between atoms: _661  and  _662
REMARK  274  A    between atoms: _661  and  _664
REMARK  275  A    between atoms: _667  and  _669
REMARK  276  A    between atoms: _669  and  _670
REMARK  277  A    between atoms: _669  and  _672
REMARK  278  A    between atoms: _672  and  _673
REMARK  279  A    between atoms: _676  and  _678
REMARK  280  A    between atoms: _678  and  _679
REMARK  281  A    between atoms: _678  and  _681
REMARK  282  A    between atoms: _681  and  _682
REMARK                            x       y       z     vdW  Elec       q    Type
REMARK                         _______ _______ _______ _____ _____    ______ ____
ROOT
ATOM      1  O   HOH     1      12.225  16.934  44.321  0.00  0.00    +0.000 OA
ENDROOT
TORSDOF 0
REMARK  Name = ../refined-set-2016/4i9h/4i9h_pocket.pdb
REMARK  282 active torsions:
REMARK  status: ('A' for Active; 'I' for Inactive)
REMARK    1  A    between atoms: _1  and  _3
REMARK    2  A    between atoms: _3  and  _4
REMARK    3  A    between atoms: _3  and  _6
REMARK    4  A    between atoms: _9  and  _11
REMARK    5  A    between atoms: _11  and  _12
REMARK    6  A    between atoms: _11  and  _14
REMARK    7  A    between atoms: _17  and  _19
REMARK    8  A    between atoms: _19  and  _20
REMARK    9  A    between atoms: _22  and  _24
REMARK   10  A    between atoms: _24  and  _25
REMARK   11  A    between atoms: _24  and  _27
REMARK   12  A    between atoms: _30  and  _32
REMARK   13  A    between atoms: _32  and  _33
REMARK   14  A    between atoms: _35  and  _37
REMARK   15  A    between atoms: _37  and  _38
REMARK   16  A    between atoms: _41  and  _43
REMARK   17  A    between atoms: _43  and  _44
REMARK   18  A    between atoms: _43  and  _46
REMARK   19  A    between atoms: _49  and  _51
REMARK   20  A    between atoms: _51  and  _52
REMARK   21  A    between atoms: _54  and  _56
REMARK   22  A    between atoms: _56  and  _57
REMARK   23  A    between atoms: _56  and  _59
REMARK   24  A    between atoms: _59  and  _60
REMARK   25  A    between atoms: _60  and  _61
REMARK   26  A    between atoms: _63  and  _65
REMARK   27  A    between atoms: _65  and  _66
REMARK   28  A    between atoms: _65  and  _68
REMARK   29  A    between atoms: _70  and  _72
REMARK   30  A    between atoms: _72  and  _73
REMARK   31  A    between atoms: _72  and  _75
REMARK   32  A    between atoms: _75  and  _76
REMARK   33  A    between atoms: _79  and  _81
REMARK   34  A    between atoms: _81  and  _82
REMARK   35  A    between atoms: _81  and  _84
REMARK   36  A    between atoms: _87  and  _89
REMARK   37  A    between atoms: _89  and  _90
REMARK   38  A    between atoms: _89  and  _92
REMARK   39  A    between atoms: _92  and  _93
REMARK   40  A    between atoms: _96  and  _98
REMARK   41  A    between atoms: _98  and  _99
REMARK   42  A    between atoms: _98  and  _101
REMARK   43  A    between atoms: _104  and  _106
REMARK   44  A    between atoms: _106  and  _107
REMARK   45  A    between atoms: _106  and  _109
REMARK   46  A    between atoms: _109  and  _110
REMARK   47  A    between atoms: _110  and  _111
REMARK   48  A    between atoms: _113  and  _115
REMARK   49  A    between atoms: _115  and  _116
REMARK   50  A    between atoms: _115  and  _118
REMARK   51  A    between atoms: _118  and  _119
REMARK   52  A    between atoms: _119  and  _120
REMARK   53  A    between atoms: _120  and  _121
REMARK   54  A    between atoms: _121  and  _122
REMARK   55  A    between atoms: _126  and  _128
REMARK   56  A    between atoms: _128  and  _129
REMARK   57  A    between atoms: _128  and  _131
REMARK   58  A    between atoms: _131  and  _132
REMARK   59  A    between atoms: _135  and  _137
REMARK   60  A    between atoms: _137  and  _138
REMARK   61  A    between atoms: _137  and  _140
REMARK   62  A    between atoms: _140  and  _141
REMARK   63  A    between atoms: _141  and  _142
REMARK   64  A    between atoms: _142  and  _143
REMARK   65  A    between atoms: _143  and  _144
REMARK   66  A    between atoms: _148  and  _150
REMARK   67  A    between atoms: _150  and  _151
REMARK   68  A    between atoms: _150  and  _153
REMARK   69  A    between atoms: _153  and  _154
REMARK   70  A    between atoms: _159  and  _160
REMARK   71  A    between atoms: _162  and  _164
REMARK   72  A    between atoms: _164  and  _165
REMARK   73  A    between atoms: _164  and  _167
REMARK   74  A    between atoms: _167  and  _168
REMARK   75  A    between atoms: _171  and  _173
REMARK   76  A    between atoms: _173  and  _174
REMARK   77  A    between atoms: _173  and  _176
REMARK   78  A    between atoms: _176  and  _177
REMARK   79  A    between atoms: _180  and  _182
REMARK   80  A    between atoms: _182  and  _183
REMARK   81  A    between atoms: _182  and  _185
REMARK   82  A    between atoms: _185  and  _186
REMARK   83  A    between atoms: _189  and  _191
REMARK   84  A    between atoms: _191  and  _192
REMARK   85  A    between atoms: _195  and  _197
REMARK   86  A    between atoms: _197  and  _198
REMARK   87  A    between atoms: _200  and  _202
REMARK   88  A    between atoms: _202  and  _203
REMARK   89  A    between atoms: _206  and  _208
REMARK   90  A    between atoms: _208  and  _209
REMARK   91  A    between atoms: _208  and  _211
REMARK   92  A    between atoms: _211  and  _212
REMARK   93  A    between atoms: _212  and  _213
REMARK   94  A    between atoms: _213  and  _214
REMARK   95  A    between atoms: _223  and  _225
REMARK   96  A    between atoms: _225  and  _226
REMARK   97  A    between atoms: _225  and  _228
REMARK   98  A    between atoms: _228  and  _229
REMARK   99  A    between atoms: _229  and  _230
REMARK  100  A    between atoms: _235  and  _237
REMARK  101  A    between atoms: _237  and  _238
REMARK  102  A    between atoms: _237  and  _240
REMARK  103  A    between atoms: _240  and  _241
REMARK  104  A    between atoms: _246  and  _248
REMARK  105  A    between atoms: _248  and  _249
REMARK  106  A    between atoms: _248  and  _251
REMARK  107  A    between atoms: _251  and  _252
REMARK  108  A    between atoms: _255  and  _257
REMARK  109  A    between atoms: _257  and  _258
REMARK  110  A    between atoms: _257  and  _260
REMARK  111  A    between atoms: _260  and  _261
REMARK  112  A    between atoms: _261  and  _262
REMARK  113  A    between atoms: _267  and  _269
REMARK  114  A    between atoms: _269  and  _270
REMARK  115  A    between atoms: _269  and  _272
REMARK  116  A    between atoms: _272  and  _273
REMARK  117  A    between atoms: _273  and  _274
REMARK  118  A    between atoms: _274  and  _275
REMARK  119  A    between atoms: _284  and  _286
REMARK  120  A    between atoms: _286  and  _287
REMARK  121  A    between atoms: _286  and  _289
REMARK  122  A    between atoms: _289  and  _290
REMARK  123  A    between atoms: _295  and  _297
REMARK  124  A    between atoms: _297  and  _298
REMARK  125  A    between atoms: _297  and  _300
REMARK  126  A    between atoms: _303  and  _305
REMARK  127  A    between atoms: _305  and  _306
REMARK  128  A    between atoms: _305  and  _308
REMARK  129  A    between atoms: _308  and  _309
REMARK  130  A    between atoms: _314  and  _316
REMARK  131  A    between atoms: _316  and  _317
REMARK  132  A    between atoms: _316  and  _319
REMARK  133  A    between atoms: _319  and  _320
REMARK  134  A    between atoms: _323  and  _325
REMARK  135  A    between atoms: _325  and  _326
REMARK  136  A    between atoms: _325  and  _328
REMARK  137  A    between atoms: _328  and  _329
REMARK  138  A    between atoms: _335  and  _337
REMARK  139  A    between atoms: _337  and  _338
REMARK  140  A    between atoms: _337  and  _340
REMARK  141  A    between atoms: _340  and  _341
REMARK  142  A    between atoms: _341  and  _342
REMARK  143  A    between atoms: _342  and  _343
REMARK  144  A    between atoms: _343  and  _344
REMARK  145  A    between atoms: _348  and  _350
REMARK  146  A    between atoms: _350  and  _351
REMARK  147  A    between atoms: _350  and  _353
REMARK  148  A    between atoms: _353  and  _354
REMARK  149  A    between atoms: _360  and  _362
REMARK  150  A    between atoms: _362  and  _363
REMARK  151  A    between atoms: _362  and  _365
REMARK  152  A    between atoms: _365  and  _366
REMARK  153  A    between atoms: _369  and  _371
REMARK  154  A    between atoms: _371  and  _372
REMARK  155  A    between atoms: _371  and  _374
REMARK  156  A    between atoms: _374  and  _375
REMARK  157  A    between atoms: _378  and  _380
REMARK  158  A    between atoms: _380  and  _381
REMARK  159  A    between atoms: _380  and  _383
REMARK  160  A    between atoms: _383  and  _384
REMARK  161  A    between atoms: _389  and  _391
REMARK  162  A    between atoms: _391  and  _392
REMARK  163  A    between atoms: _391  and  _394
REMARK  164  A    between atoms: _394  and  _395
REMARK  165  A    between atoms: _398  and  _400
REMARK  166  A    between atoms: _400  and  _401
REMARK  167  A    between atoms: _400  and  _403
REMARK  168  A    between atoms: _406  and  _408
REMARK  169  A    between atoms: _408  and  _409
REMARK  170  A    between atoms: _408  and  _411
REMARK  171  A    between atoms: _414  and  _416
REMARK  172  A    between atoms: _416  and  _417
REMARK  173  A    between atoms: _416  and  _419
REMARK  174  A    between atoms: _419  and  _420
REMARK  175  A    between atoms: _422  and  _424
REMARK  176  A    between atoms: _424  and  _425
REMARK  177  A    between atoms: _424  and  _427
REMARK  178  A    between atoms: _427  and  _428
REMARK  179  A    between atoms: _433  and  _435
REMARK  180  A    between atoms: _435  and  _436
REMARK  181  A    between atoms: _435  and  _438
REMARK  182  A    between atoms: _441  and  _443
REMARK  183  A    between atoms: _443  and  _444
REMARK  184  A    between atoms: _443  and  _446
REMARK  185  A    between atoms: _446  and  _447
REMARK  186  A    between atoms: _450  and  _452
REMARK  187  A    between atoms: _452  and  _453
REMARK  188  A    between atoms: _452  and  _455
REMARK  189  A    between atoms: _455  and  _456
REMARK  190  A    between atoms: _458  and  _460
REMARK  191  A    between atoms: _460  and  _461
REMARK  192  A    between atoms: _463  and  _465
REMARK  193  A    between atoms: _465  and  _466
REMARK  194  A    between atoms: _465  and  _468
REMARK  195  A    between atoms: _468  and  _469
REMARK  196  A    between atoms: _472  and  _474
REMARK  197  A    between atoms: _474  and  _475
REMARK  198  A    between atoms: _474  and  _477
REMARK  199  A    between atoms: _477  and  _478
REMARK  200  A    between atoms: _481  and  _483
REMARK  201  A    between atoms: _483  and  _484
REMARK  202  A    between atoms: _483  and  _486
REMARK  203  A    between atoms: _486  and  _487
REMARK  204  A    between atoms: _487  and  _488
REMARK  205  A    between atoms: _488  and  _489
REMARK  206  A    between atoms: _498  and  _500
REMARK  207  A    between atoms: _500  and  _501
REMARK  208  A    between atoms: _500  and  _503
REMARK  209  A    between atoms: _503  and  _504
REMARK  210  A    between atoms: _509  and  _511
REMARK  211  A    between atoms: _511  and  _512
REMARK  212  A    between atoms: _514  and  _516
REMARK  213  A    between atoms: _516  and  _517
REMARK  214  A    between atoms: _516  and  _519
REMARK  215  A    between atoms: _522  and  _524
REMARK  216  A    between atoms: _524  and  _525
REMARK  217  A    between atoms: _524  and  _527
REMARK  218  A    between atoms: _530  and  _532
REMARK  219  A    between atoms: _532  and  _533
REMARK  220  A    between atoms: _532  and  _535
REMARK  221  A    between atoms: _535  and  _536
REMARK  222  A    between atoms: _539  and  _541
REMARK  223  A    between atoms: _541  and  _542
REMARK  224  A    between atoms: _541  and  _544
REMARK  225  A    between atoms: _544  and  _545
REMARK  226  A    between atoms: _547  and  _549
REMARK  227  A    between atoms: _549  and  _550
REMARK  228  A    between atoms: _553  and  _555
REMARK  229  A    between atoms: _555  and  _556
REMARK  230  A    between atoms: _555  and  _558
REMARK  231  A    between atoms: _558  and  _559
REMARK  232  A    between atoms: _564  and  _565
REMARK  233  A    between atoms: _567  and  _569
REMARK  234  A    between atoms: _569  and  _570
REMARK  235  A    between atoms: _569  and  _572
REMARK  236  A    between atoms: _572  and  _573
REMARK  237  A    between atoms: _573  and  _574
REMARK  238  A    between atoms: _577  and  _579
REMARK  239  A    between atoms: _579  and  _580
REMARK  240  A    between atoms: _579  and  _582
REMARK  241  A    between atoms: _585  and  _587
REMARK  242  A    between atoms: _587  and  _588
REMARK  243  A    between atoms: _587  and  _590
REMARK  244  A    between atoms: _590  and  _591
REMARK  245  A    between atoms: _594  and  _596
REMARK  246  A    between atoms: _596  and  _597
REMARK  247  A    between atoms: _599  and  _601
REMARK  248  A    between atoms: _601  and  _602
REMARK  249  A    between atoms: _601  and  _604
REMARK  250  A    between atoms: _604  and  _605
REMARK  251  A    between atoms: _610  and  _611
REMARK  252  A    between atoms: _613  and  _615
REMARK  253  A    between atoms: _615  and  _616
REMARK  254  A    between atoms: _615  and  _618
REMARK  255  A    between atoms: _618  and  _619
REMARK  256  A    between atoms: _622  and  _624
REMARK  257  A    between atoms: _624  and  _625
REMARK  258  A    between atoms: _624  and  _627
REMARK  259  A    between atoms: _627  and  _628
REMARK  260  A    between atoms: _631  and  _633
REMARK  261  A    between atoms: _633  and  _634
REMARK  262  A    between atoms: _637  and  _639
REMARK  263  A    between atoms: _639  and  _640
REMARK  264  A    between atoms: _639  and  _642
REMARK  265  A    between atoms: _642  and  _643
REMARK  266  A    between atoms: _646  and  _648
REMARK  267  A    between atoms: _648  and  _649
REMARK  268  A    between atoms: _651  and  _653
REMARK  269  A    between atoms: _653  and  _654
REMARK  270  A    between atoms: _653  and  _656
REMARK  271  A    between atoms: _656  and  _657
REMARK  272  A    between atoms: _659  and  _661
REMARK  273  A    between atoms: _661  and  _662
REMARK  274  A    between atoms: _661  and  _664
REMARK  275  A    between atoms: _667  and  _669
REMARK  276  A    between atoms: _669  and  _670
REMARK  277  A    between atoms: _669  and  _672
REMARK  278  A    between atoms: _672  and  _673
REMARK  279  A    between atoms: _676  and  _678
REMARK  280  A    between atoms: _678  and  _679
REMARK  281  A    between atoms: _678  and  _681
REMARK  282  A    between atoms: _681  and  _682
REMARK                            x       y       z     vdW  Elec       q    Type
REMARK                         _______ _______ _______ _____ _____    ______ ____
ROOT
ATOM      1  O   HOH     1       5.715   6.947  52.583  0.00  0.00    +0.000 OA
ENDROOT
TORSDOF 0
REMARK  Name = ../refined-set-2016/4i9h/4i9h_pocket.pdb
REMARK  282 active torsions:
REMARK  status: ('A' for Active; 'I' for Inactive)
REMARK    1  A    between atoms: _1  and  _3
REMARK    2  A    between atoms: _3  and  _4
REMARK    3  A    between atoms: _3  and  _6
REMARK    4  A    between atoms: _9  and  _11
REMARK    5  A    between atoms: _11  and  _12
REMARK    6  A    between atoms: _11  and  _14
REMARK    7  A    between atoms: _17  and  _19
REMARK    8  A    between atoms: _19  and  _20
REMARK    9  A    between atoms: _22  and  _24
REMARK   10  A    between atoms: _24  and  _25
REMARK   11  A    between atoms: _24  and  _27
REMARK   12  A    between atoms: _30  and  _32
REMARK   13  A    between atoms: _32  and  _33
REMARK   14  A    between atoms: _35  and  _37
REMARK   15  A    between atoms: _37  and  _38
REMARK   16  A    between atoms: _41  and  _43
REMARK   17  A    between atoms: _43  and  _44
REMARK   18  A    between atoms: _43  and  _46
REMARK   19  A    between atoms: _49  and  _51
REMARK   20  A    between atoms: _51  and  _52
REMARK   21  A    between atoms: _54  and  _56
REMARK   22  A    between atoms: _56  and  _57
REMARK   23  A    between atoms: _56  and  _59
REMARK   24  A    between atoms: _59  and  _60
REMARK   25  A    between atoms: _60  and  _61
REMARK   26  A    between atoms: _63  and  _65
REMARK   27  A    between atoms: _65  and  _66
REMARK   28  A    between atoms: _65  and  _68
REMARK   29  A    between atoms: _70  and  _72
REMARK   30  A    between atoms: _72  and  _73
REMARK   31  A    between atoms: _72  and  _75
REMARK   32  A    between atoms: _75  and  _76
REMARK   33  A    between atoms: _79  and  _81
REMARK   34  A    between atoms: _81  and  _82
REMARK   35  A    between atoms: _81  and  _84
REMARK   36  A    between atoms: _87  and  _89
REMARK   37  A    between atoms: _89  and  _90
REMARK   38  A    between atoms: _89  and  _92
REMARK   39  A    between atoms: _92  and  _93
REMARK   40  A    between atoms: _96  and  _98
REMARK   41  A    between atoms: _98  and  _99
REMARK   42  A    between atoms: _98  and  _101
REMARK   43  A    between atoms: _104  and  _106
REMARK   44  A    between atoms: _106  and  _107
REMARK   45  A    between atoms: _106  and  _109
REMARK   46  A    between atoms: _109  and  _110
REMARK   47  A    between atoms: _110  and  _111
REMARK   48  A    between atoms: _113  and  _115
REMARK   49  A    between atoms: _115  and  _116
REMARK   50  A    between atoms: _115  and  _118
REMARK   51  A    between atoms: _118  and  _119
REMARK   52  A    between atoms: _119  and  _120
REMARK   53  A    between atoms: _120  and  _121
REMARK   54  A    between atoms: _121  and  _122
REMARK   55  A    between atoms: _126  and  _128
REMARK   56  A    between atoms: _128  and  _129
REMARK   57  A    between atoms: _128  and  _131
REMARK   58  A    between atoms: _131  and  _132
REMARK   59  A    between atoms: _135  and  _137
REMARK   60  A    between atoms: _137  and  _138
REMARK   61  A    between atoms: _137  and  _140
REMARK   62  A    between atoms: _140  and  _141
REMARK   63  A    between atoms: _141  and  _142
REMARK   64  A    between atoms: _142  and  _143
REMARK   65  A    between atoms: _143  and  _144
REMARK   66  A    between atoms: _148  and  _150
REMARK   67  A    between atoms: _150  and  _151
REMARK   68  A    between atoms: _150  and  _153
REMARK   69  A    between atoms: _153  and  _154
REMARK   70  A    between atoms: _159  and  _160
REMARK   71  A    between atoms: _162  and  _164
REMARK   72  A    between atoms: _164  and  _165
REMARK   73  A    between atoms: _164  and  _167
REMARK   74  A    between atoms: _167  and  _168
REMARK   75  A    between atoms: _171  and  _173
REMARK   76  A    between atoms: _173  and  _174
REMARK   77  A    between atoms: _173  and  _176
REMARK   78  A    between atoms: _176  and  _177
REMARK   79  A    between atoms: _180  and  _182
REMARK   80  A    between atoms: _182  and  _183
REMARK   81  A    between atoms: _182  and  _185
REMARK   82  A    between atoms: _185  and  _186
REMARK   83  A    between atoms: _189  and  _191
REMARK   84  A    between atoms: _191  and  _192
REMARK   85  A    between atoms: _195  and  _197
REMARK   86  A    between atoms: _197  and  _198
REMARK   87  A    between atoms: _200  and  _202
REMARK   88  A    between atoms: _202  and  _203
REMARK   89  A    between atoms: _206  and  _208
REMARK   90  A    between atoms: _208  and  _209
REMARK   91  A    between atoms: _208  and  _211
REMARK   92  A    between atoms: _211  and  _212
REMARK   93  A    between atoms: _212  and  _213
REMARK   94  A    between atoms: _213  and  _214
REMARK   95  A    between atoms: _223  and  _225
REMARK   96  A    between atoms: _225  and  _226
REMARK   97  A    between atoms: _225  and  _228
REMARK   98  A    between atoms: _228  and  _229
REMARK   99  A    between atoms: _229  and  _230
REMARK  100  A    between atoms: _235  and  _237
REMARK  101  A    between atoms: _237  and  _238
REMARK  102  A    between atoms: _237  and  _240
REMARK  103  A    between atoms: _240  and  _241
REMARK  104  A    between atoms: _246  and  _248
REMARK  105  A    between atoms: _248  and  _249
REMARK  106  A    between atoms: _248  and  _251
REMARK  107  A    between atoms: _251  and  _252
REMARK  108  A    between atoms: _255  and  _257
REMARK  109  A    between atoms: _257  and  _258
REMARK  110  A    between atoms: _257  and  _260
REMARK  111  A    between atoms: _260  and  _261
REMARK  112  A    between atoms: _261  and  _262
REMARK  113  A    between atoms: _267  and  _269
REMARK  114  A    between atoms: _269  and  _270
REMARK  115  A    between atoms: _269  and  _272
REMARK  116  A    between atoms: _272  and  _273
REMARK  117  A    between atoms: _273  and  _274
REMARK  118  A    between atoms: _274  and  _275
REMARK  119  A    between atoms: _284  and  _286
REMARK  120  A    between atoms: _286  and  _287
REMARK  121  A    between atoms: _286  and  _289
REMARK  122  A    between atoms: _289  and  _290
REMARK  123  A    between atoms: _295  and  _297
REMARK  124  A    between atoms: _297  and  _298
REMARK  125  A    between atoms: _297  and  _300
REMARK  126  A    between atoms: _303  and  _305
REMARK  127  A    between atoms: _305  and  _306
REMARK  128  A    between atoms: _305  and  _308
REMARK  129  A    between atoms: _308  and  _309
REMARK  130  A    between atoms: _314  and  _316
REMARK  131  A    between atoms: _316  and  _317
REMARK  132  A    between atoms: _316  and  _319
REMARK  133  A    between atoms: _319  and  _320
REMARK  134  A    between atoms: _323  and  _325
REMARK  135  A    between atoms: _325  and  _326
REMARK  136  A    between atoms: _325  and  _328
REMARK  137  A    between atoms: _328  and  _329
REMARK  138  A    between atoms: _335  and  _337
REMARK  139  A    between atoms: _337  and  _338
REMARK  140  A    between atoms: _337  and  _340
REMARK  141  A    between atoms: _340  and  _341
REMARK  142  A    between atoms: _341  and  _342
REMARK  143  A    between atoms: _342  and  _343
REMARK  144  A    between atoms: _343  and  _344
REMARK  145  A    between atoms: _348  and  _350
REMARK  146  A    between atoms: _350  and  _351
REMARK  147  A    between atoms: _350  and  _353
REMARK  148  A    between atoms: _353  and  _354
REMARK  149  A    between atoms: _360  and  _362
REMARK  150  A    between atoms: _362  and  _363
REMARK  151  A    between atoms: _362  and  _365
REMARK  152  A    between atoms: _365  and  _366
REMARK  153  A    between atoms: _369  and  _371
REMARK  154  A    between atoms: _371  and  _372
REMARK  155  A    between atoms: _371  and  _374
REMARK  156  A    between atoms: _374  and  _375
REMARK  157  A    between atoms: _378  and  _380
REMARK  158  A    between atoms: _380  and  _381
REMARK  159  A    between atoms: _380  and  _383
REMARK  160  A    between atoms: _383  and  _384
REMARK  161  A    between atoms: _389  and  _391
REMARK  162  A    between atoms: _391  and  _392
REMARK  163  A    between atoms: _391  and  _394
REMARK  164  A    between atoms: _394  and  _395
REMARK  165  A    between atoms: _398  and  _400
REMARK  166  A    between atoms: _400  and  _401
REMARK  167  A    between atoms: _400  and  _403
REMARK  168  A    between atoms: _406  and  _408
REMARK  169  A    between atoms: _408  and  _409
REMARK  170  A    between atoms: _408  and  _411
REMARK  171  A    between atoms: _414  and  _416
REMARK  172  A    between atoms: _416  and  _417
REMARK  173  A    between atoms: _416  and  _419
REMARK  174  A    between atoms: _419  and  _420
REMARK  175  A    between atoms: _422  and  _424
REMARK  176  A    between atoms: _424  and  _425
REMARK  177  A    between atoms: _424  and  _427
REMARK  178  A    between atoms: _427  and  _428
REMARK  179  A    between atoms: _433  and  _435
REMARK  180  A    between atoms: _435  and  _436
REMARK  181  A    between atoms: _435  and  _438
REMARK  182  A    between atoms: _441  and  _443
REMARK  183  A    between atoms: _443  and  _444
REMARK  184  A    between atoms: _443  and  _446
REMARK  185  A    between atoms: _446  and  _447
REMARK  186  A    between atoms: _450  and  _452
REMARK  187  A    between atoms: _452  and  _453
REMARK  188  A    between atoms: _452  and  _455
REMARK  189  A    between atoms: _455  and  _456
REMARK  190  A    between atoms: _458  and  _460
REMARK  191  A    between atoms: _460  and  _461
REMARK  192  A    between atoms: _463  and  _465
REMARK  193  A    between atoms: _465  and  _466
REMARK  194  A    between atoms: _465  and  _468
REMARK  195  A    between atoms: _468  and  _469
REMARK  196  A    between atoms: _472  and  _474
REMARK  197  A    between atoms: _474  and  _475
REMARK  198  A    between atoms: _474  and  _477
REMARK  199  A    between atoms: _477  and  _478
REMARK  200  A    between atoms: _481  and  _483
REMARK  201  A    between atoms: _483  and  _484
REMARK  202  A    between atoms: _483  and  _486
REMARK  203  A    between atoms: _486  and  _487
REMARK  204  A    between atoms: _487  and  _488
REMARK  205  A    between atoms: _488  and  _489
REMARK  206  A    between atoms: _498  and  _500
REMARK  207  A    between atoms: _500  and  _501
REMARK  208  A    between atoms: _500  and  _503
REMARK  209  A    between atoms: _503  and  _504
REMARK  210  A    between atoms: _509  and  _511
REMARK  211  A    between atoms: _511  and  _512
REMARK  212  A    between atoms: _514  and  _516
REMARK  213  A    between atoms: _516  and  _517
REMARK  214  A    between atoms: _516  and  _519
REMARK  215  A    between atoms: _522  and  _524
REMARK  216  A    between atoms: _524  and  _525
REMARK  217  A    between atoms: _524  and  _527
REMARK  218  A    between atoms: _530  and  _532
REMARK  219  A    between atoms: _532  and  _533
REMARK  220  A    between atoms: _532  and  _535
REMARK  221  A    between atoms: _535  and  _536
REMARK  222  A    between atoms: _539  and  _541
REMARK  223  A    between atoms: _541  and  _542
REMARK  224  A    between atoms: _541  and  _544
REMARK  225  A    between atoms: _544  and  _545
REMARK  226  A    between atoms: _547  and  _549
REMARK  227  A    between atoms: _549  and  _550
REMARK  228  A    between atoms: _553  and  _555
REMARK  229  A    between atoms: _555  and  _556
REMARK  230  A    between atoms: _555  and  _558
REMARK  231  A    between atoms: _558  and  _559
REMARK  232  A    between atoms: _564  and  _565
REMARK  233  A    between atoms: _567  and  _569
REMARK  234  A    between atoms: _569  and  _570
REMARK  235  A    between atoms: _569  and  _572
REMARK  236  A    between atoms: _572  and  _573
REMARK  237  A    between atoms: _573  and  _574
REMARK  238  A    between atoms: _577  and  _579
REMARK  239  A    between atoms: _579  and  _580
REMARK  240  A    between atoms: _579  and  _582
REMARK  241  A    between atoms: _585  and  _587
REMARK  242  A    between atoms: _587  and  _588
REMARK  243  A    between atoms: _587  and  _590
REMARK  244  A    between atoms: _590  and  _591
REMARK  245  A    between atoms: _594  and  _596
REMARK  246  A    between atoms: _596  and  _597
REMARK  247  A    between atoms: _599  and  _601
REMARK  248  A    between atoms: _601  and  _602
REMARK  249  A    between atoms: _601  and  _604
REMARK  250  A    between atoms: _604  and  _605
REMARK  251  A    between atoms: _610  and  _611
REMARK  252  A    between atoms: _613  and  _615
REMARK  253  A    between atoms: _615  and  _616
REMARK  254  A    between atoms: _615  and  _618
REMARK  255  A    between atoms: _618  and  _619
REMARK  256  A    between atoms: _622  and  _624
REMARK  257  A    between atoms: _624  and  _625
REMARK  258  A    between atoms: _624  and  _627
REMARK  259  A    between atoms: _627  and  _628
REMARK  260  A    between atoms: _631  and  _633
REMARK  261  A    between atoms: _633  and  _634
REMARK  262  A    between atoms: _637  and  _639
REMARK  263  A    between atoms: _639  and  _640
REMARK  264  A    between atoms: _639  and  _642
REMARK  265  A    between atoms: _642  and  _643
REMARK  266  A    between atoms: _646  and  _648
REMARK  267  A    between atoms: _648  and  _649
REMARK  268  A    between atoms: _651  and  _653
REMARK  269  A    between atoms: _653  and  _654
REMARK  270  A    between atoms: _653  and  _656
REMARK  271  A    between atoms: _656  and  _657
REMARK  272  A    between atoms: _659  and  _661
REMARK  273  A    between atoms: _661  and  _662
REMARK  274  A    between atoms: _661  and  _664
REMARK  275  A    between atoms: _667  and  _669
REMARK  276  A    between atoms: _669  and  _670
REMARK  277  A    between atoms: _669  and  _672
REMARK  278  A    between atoms: _672  and  _673
REMARK  279  A    between atoms: _676  and  _678
REMARK  280  A    between atoms: _678  and  _679
REMARK  281  A    between atoms: _678  and  _681
REMARK  282  A    between atoms: _681  and  _682
REMARK                            x       y       z     vdW  Elec       q    Type
REMARK                         _______ _______ _______ _____ _____    ______ ____
ROOT
ATOM      1  O   HOH     1      15.940  16.557  31.457  0.00  0.00    +0.000 OA
ENDROOT
TORSDOF 0
REMARK  Name = ../refined-set-2016/4i9h/4i9h_pocket.pdb
REMARK  282 active torsions:
REMARK  status: ('A' for Active; 'I' for Inactive)
REMARK    1  A    between atoms: _1  and  _3
REMARK    2  A    between atoms: _3  and  _4
REMARK    3  A    between atoms: _3  and  _6
REMARK    4  A    between atoms: _9  and  _11
REMARK    5  A    between atoms: _11  and  _12
REMARK    6  A    between atoms: _11  and  _14
REMARK    7  A    between atoms: _17  and  _19
REMARK    8  A    between atoms: _19  and  _20
REMARK    9  A    between atoms: _22  and  _24
REMARK   10  A    between atoms: _24  and  _25
REMARK   11  A    between atoms: _24  and  _27
REMARK   12  A    between atoms: _30  and  _32
REMARK   13  A    between atoms: _32  and  _33
REMARK   14  A    between atoms: _35  and  _37
REMARK   15  A    between atoms: _37  and  _38
REMARK   16  A    between atoms: _41  and  _43
REMARK   17  A    between atoms: _43  and  _44
REMARK   18  A    between atoms: _43  and  _46
REMARK   19  A    between atoms: _49  and  _51
REMARK   20  A    between atoms: _51  and  _52
REMARK   21  A    between atoms: _54  and  _56
REMARK   22  A    between atoms: _56  and  _57
REMARK   23  A    between atoms: _56  and  _59
REMARK   24  A    between atoms: _59  and  _60
REMARK   25  A    between atoms: _60  and  _61
REMARK   26  A    between atoms: _63  and  _65
REMARK   27  A    between atoms: _65  and  _66
REMARK   28  A    between atoms: _65  and  _68
REMARK   29  A    between atoms: _70  and  _72
REMARK   30  A    between atoms: _72  and  _73
REMARK   31  A    between atoms: _72  and  _75
REMARK   32  A    between atoms: _75  and  _76
REMARK   33  A    between atoms: _79  and  _81
REMARK   34  A    between atoms: _81  and  _82
REMARK   35  A    between atoms: _81  and  _84
REMARK   36  A    between atoms: _87  and  _89
REMARK   37  A    between atoms: _89  and  _90
REMARK   38  A    between atoms: _89  and  _92
REMARK   39  A    between atoms: _92  and  _93
REMARK   40  A    between atoms: _96  and  _98
REMARK   41  A    between atoms: _98  and  _99
REMARK   42  A    between atoms: _98  and  _101
REMARK   43  A    between atoms: _104  and  _106
REMARK   44  A    between atoms: _106  and  _107
REMARK   45  A    between atoms: _106  and  _109
REMARK   46  A    between atoms: _109  and  _110
REMARK   47  A    between atoms: _110  and  _111
REMARK   48  A    between atoms: _113  and  _115
REMARK   49  A    between atoms: _115  and  _116
REMARK   50  A    between atoms: _115  and  _118
REMARK   51  A    between atoms: _118  and  _119
REMARK   52  A    between atoms: _119  and  _120
REMARK   53  A    between atoms: _120  and  _121
REMARK   54  A    between atoms: _121  and  _122
REMARK   55  A    between atoms: _126  and  _128
REMARK   56  A    between atoms: _128  and  _129
REMARK   57  A    between atoms: _128  and  _131
REMARK   58  A    between atoms: _131  and  _132
REMARK   59  A    between atoms: _135  and  _137
REMARK   60  A    between atoms: _137  and  _138
REMARK   61  A    between atoms: _137  and  _140
REMARK   62  A    between atoms: _140  and  _141
REMARK   63  A    between atoms: _141  and  _142
REMARK   64  A    between atoms: _142  and  _143
REMARK   65  A    between atoms: _143  and  _144
REMARK   66  A    between atoms: _148  and  _150
REMARK   67  A    between atoms: _150  and  _151
REMARK   68  A    between atoms: _150  and  _153
REMARK   69  A    between atoms: _153  and  _154
REMARK   70  A    between atoms: _159  and  _160
REMARK   71  A    between atoms: _162  and  _164
REMARK   72  A    between atoms: _164  and  _165
REMARK   73  A    between atoms: _164  and  _167
REMARK   74  A    between atoms: _167  and  _168
REMARK   75  A    between atoms: _171  and  _173
REMARK   76  A    between atoms: _173  and  _174
REMARK   77  A    between atoms: _173  and  _176
REMARK   78  A    between atoms: _176  and  _177
REMARK   79  A    between atoms: _180  and  _182
REMARK   80  A    between atoms: _182  and  _183
REMARK   81  A    between atoms: _182  and  _185
REMARK   82  A    between atoms: _185  and  _186
REMARK   83  A    between atoms: _189  and  _191
REMARK   84  A    between atoms: _191  and  _192
REMARK   85  A    between atoms: _195  and  _197
REMARK   86  A    between atoms: _197  and  _198
REMARK   87  A    between atoms: _200  and  _202
REMARK   88  A    between atoms: _202  and  _203
REMARK   89  A    between atoms: _206  and  _208
REMARK   90  A    between atoms: _208  and  _209
REMARK   91  A    between atoms: _208  and  _211
REMARK   92  A    between atoms: _211  and  _212
REMARK   93  A    between atoms: _212  and  _213
REMARK   94  A    between atoms: _213  and  _214
REMARK   95  A    between atoms: _223  and  _225
REMARK   96  A    between atoms: _225  and  _226
REMARK   97  A    between atoms: _225  and  _228
REMARK   98  A    between atoms: _228  and  _229
REMARK   99  A    between atoms: _229  and  _230
REMARK  100  A    between atoms: _235  and  _237
REMARK  101  A    between atoms: _237  and  _238
REMARK  102  A    between atoms: _237  and  _240
REMARK  103  A    between atoms: _240  and  _241
REMARK  104  A    between atoms: _246  and  _248
REMARK  105  A    between atoms: _248  and  _249
REMARK  106  A    between atoms: _248  and  _251
REMARK  107  A    between atoms: _251  and  _252
REMARK  108  A    between atoms: _255  and  _257
REMARK  109  A    between atoms: _257  and  _258
REMARK  110  A    between atoms: _257  and  _260
REMARK  111  A    between atoms: _260  and  _261
REMARK  112  A    between atoms: _261  and  _262
REMARK  113  A    between atoms: _267  and  _269
REMARK  114  A    between atoms: _269  and  _270
REMARK  115  A    between atoms: _269  and  _272
REMARK  116  A    between atoms: _272  and  _273
REMARK  117  A    between atoms: _273  and  _274
REMARK  118  A    between atoms: _274  and  _275
REMARK  119  A    between atoms: _284  and  _286
REMARK  120  A    between atoms: _286  and  _287
REMARK  121  A    between atoms: _286  and  _289
REMARK  122  A    between atoms: _289  and  _290
REMARK  123  A    between atoms: _295  and  _297
REMARK  124  A    between atoms: _297  and  _298
REMARK  125  A    between atoms: _297  and  _300
REMARK  126  A    between atoms: _303  and  _305
REMARK  127  A    between atoms: _305  and  _306
REMARK  128  A    between atoms: _305  and  _308
REMARK  129  A    between atoms: _308  and  _309
REMARK  130  A    between atoms: _314  and  _316
REMARK  131  A    between atoms: _316  and  _317
REMARK  132  A    between atoms: _316  and  _319
REMARK  133  A    between atoms: _319  and  _320
REMARK  134  A    between atoms: _323  and  _325
REMARK  135  A    between atoms: _325  and  _326
REMARK  136  A    between atoms: _325  and  _328
REMARK  137  A    between atoms: _328  and  _329
REMARK  138  A    between atoms: _335  and  _337
REMARK  139  A    between atoms: _337  and  _338
REMARK  140  A    between atoms: _337  and  _340
REMARK  141  A    between atoms: _340  and  _341
REMARK  142  A    between atoms: _341  and  _342
REMARK  143  A    between atoms: _342  and  _343
REMARK  144  A    between atoms: _343  and  _344
REMARK  145  A    between atoms: _348  and  _350
REMARK  146  A    between atoms: _350  and  _351
REMARK  147  A    between atoms: _350  and  _353
REMARK  148  A    between atoms: _353  and  _354
REMARK  149  A    between atoms: _360  and  _362
REMARK  150  A    between atoms: _362  and  _363
REMARK  151  A    between atoms: _362  and  _365
REMARK  152  A    between atoms: _365  and  _366
REMARK  153  A    between atoms: _369  and  _371
REMARK  154  A    between atoms: _371  and  _372
REMARK  155  A    between atoms: _371  and  _374
REMARK  156  A    between atoms: _374  and  _375
REMARK  157  A    between atoms: _378  and  _380
REMARK  158  A    between atoms: _380  and  _381
REMARK  159  A    between atoms: _380  and  _383
REMARK  160  A    between atoms: _383  and  _384
REMARK  161  A    between atoms: _389  and  _391
REMARK  162  A    between atoms: _391  and  _392
REMARK  163  A    between atoms: _391  and  _394
REMARK  164  A    between atoms: _394  and  _395
REMARK  165  A    between atoms: _398  and  _400
REMARK  166  A    between atoms: _400  and  _401
REMARK  167  A    between atoms: _400  and  _403
REMARK  168  A    between atoms: _406  and  _408
REMARK  169  A    between atoms: _408  and  _409
REMARK  170  A    between atoms: _408  and  _411
REMARK  171  A    between atoms: _414  and  _416
REMARK  172  A    between atoms: _416  and  _417
REMARK  173  A    between atoms: _416  and  _419
REMARK  174  A    between atoms: _419  and  _420
REMARK  175  A    between atoms: _422  and  _424
REMARK  176  A    between atoms: _424  and  _425
REMARK  177  A    between atoms: _424  and  _427
REMARK  178  A    between atoms: _427  and  _428
REMARK  179  A    between atoms: _433  and  _435
REMARK  180  A    between atoms: _435  and  _436
REMARK  181  A    between atoms: _435  and  _438
REMARK  182  A    between atoms: _441  and  _443
REMARK  183  A    between atoms: _443  and  _444
REMARK  184  A    between atoms: _443  and  _446
REMARK  185  A    between atoms: _446  and  _447
REMARK  186  A    between atoms: _450  and  _452
REMARK  187  A    between atoms: _452  and  _453
REMARK  188  A    between atoms: _452  and  _455
REMARK  189  A    between atoms: _455  and  _456
REMARK  190  A    between atoms: _458  and  _460
REMARK  191  A    between atoms: _460  and  _461
REMARK  192  A    between atoms: _463  and  _465
REMARK  193  A    between atoms: _465  and  _466
REMARK  194  A    between atoms: _465  and  _468
REMARK  195  A    between atoms: _468  and  _469
REMARK  196  A    between atoms: _472  and  _474
REMARK  197  A    between atoms: _474  and  _475
REMARK  198  A    between atoms: _474  and  _477
REMARK  199  A    between atoms: _477  and  _478
REMARK  200  A    between atoms: _481  and  _483
REMARK  201  A    between atoms: _483  and  _484
REMARK  202  A    between atoms: _483  and  _486
REMARK  203  A    between atoms: _486  and  _487
REMARK  204  A    between atoms: _487  and  _488
REMARK  205  A    between atoms: _488  and  _489
REMARK  206  A    between atoms: _498  and  _500
REMARK  207  A    between atoms: _500  and  _501
REMARK  208  A    between atoms: _500  and  _503
REMARK  209  A    between atoms: _503  and  _504
REMARK  210  A    between atoms: _509  and  _511
REMARK  211  A    between atoms: _511  and  _512
REMARK  212  A    between atoms: _514  and  _516
REMARK  213  A    between atoms: _516  and  _517
REMARK  214  A    between atoms: _516  and  _519
REMARK  215  A    between atoms: _522  and  _524
REMARK  216  A    between atoms: _524  and  _525
REMARK  217  A    between atoms: _524  and  _527
REMARK  218  A    between atoms: _530  and  _532
REMARK  219  A    between atoms: _532  and  _533
REMARK  220  A    between atoms: _532  and  _535
REMARK  221  A    between atoms: _535  and  _536
REMARK  222  A    between atoms: _539  and  _541
REMARK  223  A    between atoms: _541  and  _542
REMARK  224  A    between atoms: _541  and  _544
REMARK  225  A    between atoms: _544  and  _545
REMARK  226  A    between atoms: _547  and  _549
REMARK  227  A    between atoms: _549  and  _550
REMARK  228  A    between atoms: _553  and  _555
REMARK  229  A    between atoms: _555  and  _556
REMARK  230  A    between atoms: _555  and  _558
REMARK  231  A    between atoms: _558  and  _559
REMARK  232  A    between atoms: _564  and  _565
REMARK  233  A    between atoms: _567  and  _569
REMARK  234  A    between atoms: _569  and  _570
REMARK  235  A    between atoms: _569  and  _572
REMARK  236  A    between atoms: _572  and  _573
REMARK  237  A    between atoms: _573  and  _574
REMARK  238  A    between atoms: _577  and  _579
REMARK  239  A    between atoms: _579  and  _580
REMARK  240  A    between atoms: _579  and  _582
REMARK  241  A    between atoms: _585  and  _587
REMARK  242  A    between atoms: _587  and  _588
REMARK  243  A    between atoms: _587  and  _590
REMARK  244  A    between atoms: _590  and  _591
REMARK  245  A    between atoms: _594  and  _596
REMARK  246  A    between atoms: _596  and  _597
REMARK  247  A    between atoms: _599  and  _601
REMARK  248  A    between atoms: _601  and  _602
REMARK  249  A    between atoms: _601  and  _604
REMARK  250  A    between atoms: _604  and  _605
REMARK  251  A    between atoms: _610  and  _611
REMARK  252  A    between atoms: _613  and  _615
REMARK  253  A    between atoms: _615  and  _616
REMARK  254  A    between atoms: _615  and  _618
REMARK  255  A    between atoms: _618  and  _619
REMARK  256  A    between atoms: _622  and  _624
REMARK  257  A    between atoms: _624  and  _625
REMARK  258  A    between atoms: _624  and  _627
REMARK  259  A    between atoms: _627  and  _628
REMARK  260  A    between atoms: _631  and  _633
REMARK  261  A    between atoms: _633  and  _634
REMARK  262  A    between atoms: _637  and  _639
REMARK  263  A    between atoms: _639  and  _640
REMARK  264  A    between atoms: _639  and  _642
REMARK  265  A    between atoms: _642  and  _643
REMARK  266  A    between atoms: _646  and  _648
REMARK  267  A    between atoms: _648  and  _649
REMARK  268  A    between atoms: _651  and  _653
REMARK  269  A    between atoms: _653  and  _654
REMARK  270  A    between atoms: _653  and  _656
REMARK  271  A    between atoms: _656  and  _657
REMARK  272  A    between atoms: _659  and  _661
REMARK  273  A    between atoms: _661  and  _662
REMARK  274  A    between atoms: _661  and  _664
REMARK  275  A    between atoms: _667  and  _669
REMARK  276  A    between atoms: _669  and  _670
REMARK  277  A    between atoms: _669  and  _672
REMARK  278  A    between atoms: _672  and  _673
REMARK  279  A    between atoms: _676  and  _678
REMARK  280  A    between atoms: _678  and  _679
REMARK  281  A    between atoms: _678  and  _681
REMARK  282  A    between atoms: _681  and  _682
REMARK                            x       y       z     vdW  Elec       q    Type
REMARK                         _______ _______ _______ _____ _____    ______ ____
ROOT
ATOM      1  O   HOH     1      20.277  20.017  38.584  0.00  0.00    +0.000 OA
ENDROOT
TORSDOF 0
REMARK  Name = ../refined-set-2016/4i9h/4i9h_pocket.pdb
REMARK  282 active torsions:
REMARK  status: ('A' for Active; 'I' for Inactive)
REMARK    1  A    between atoms: _1  and  _3
REMARK    2  A    between atoms: _3  and  _4
REMARK    3  A    between atoms: _3  and  _6
REMARK    4  A    between atoms: _9  and  _11
REMARK    5  A    between atoms: _11  and  _12
REMARK    6  A    between atoms: _11  and  _14
REMARK    7  A    between atoms: _17  and  _19
REMARK    8  A    between atoms: _19  and  _20
REMARK    9  A    between atoms: _22  and  _24
REMARK   10  A    between atoms: _24  and  _25
REMARK   11  A    between atoms: _24  and  _27
REMARK   12  A    between atoms: _30  and  _32
REMARK   13  A    between atoms: _32  and  _33
REMARK   14  A    between atoms: _35  and  _37
REMARK   15  A    between atoms: _37  and  _38
REMARK   16  A    between atoms: _41  and  _43
REMARK   17  A    between atoms: _43  and  _44
REMARK   18  A    between atoms: _43  and  _46
REMARK   19  A    between atoms: _49  and  _51
REMARK   20  A    between atoms: _51  and  _52
REMARK   21  A    between atoms: _54  and  _56
REMARK   22  A    between atoms: _56  and  _57
REMARK   23  A    between atoms: _56  and  _59
REMARK   24  A    between atoms: _59  and  _60
REMARK   25  A    between atoms: _60  and  _61
REMARK   26  A    between atoms: _63  and  _65
REMARK   27  A    between atoms: _65  and  _66
REMARK   28  A    between atoms: _65  and  _68
REMARK   29  A    between atoms: _70  and  _72
REMARK   30  A    between atoms: _72  and  _73
REMARK   31  A    between atoms: _72  and  _75
REMARK   32  A    between atoms: _75  and  _76
REMARK   33  A    between atoms: _79  and  _81
REMARK   34  A    between atoms: _81  and  _82
REMARK   35  A    between atoms: _81  and  _84
REMARK   36  A    between atoms: _87  and  _89
REMARK   37  A    between atoms: _89  and  _90
REMARK   38  A    between atoms: _89  and  _92
REMARK   39  A    between atoms: _92  and  _93
REMARK   40  A    between atoms: _96  and  _98
REMARK   41  A    between atoms: _98  and  _99
REMARK   42  A    between atoms: _98  and  _101
REMARK   43  A    between atoms: _104  and  _106
REMARK   44  A    between atoms: _106  and  _107
REMARK   45  A    between atoms: _106  and  _109
REMARK   46  A    between atoms: _109  and  _110
REMARK   47  A    between atoms: _110  and  _111
REMARK   48  A    between atoms: _113  and  _115
REMARK   49  A    between atoms: _115  and  _116
REMARK   50  A    between atoms: _115  and  _118
REMARK   51  A    between atoms: _118  and  _119
REMARK   52  A    between atoms: _119  and  _120
REMARK   53  A    between atoms: _120  and  _121
REMARK   54  A    between atoms: _121  and  _122
REMARK   55  A    between atoms: _126  and  _128
REMARK   56  A    between atoms: _128  and  _129
REMARK   57  A    between atoms: _128  and  _131
REMARK   58  A    between atoms: _131  and  _132
REMARK   59  A    between atoms: _135  and  _137
REMARK   60  A    between atoms: _137  and  _138
REMARK   61  A    between atoms: _137  and  _140
REMARK   62  A    between atoms: _140  and  _141
REMARK   63  A    between atoms: _141  and  _142
REMARK   64  A    between atoms: _142  and  _143
REMARK   65  A    between atoms: _143  and  _144
REMARK   66  A    between atoms: _148  and  _150
REMARK   67  A    between atoms: _150  and  _151
REMARK   68  A    between atoms: _150  and  _153
REMARK   69  A    between atoms: _153  and  _154
REMARK   70  A    between atoms: _159  and  _160
REMARK   71  A    between atoms: _162  and  _164
REMARK   72  A    between atoms: _164  and  _165
REMARK   73  A    between atoms: _164  and  _167
REMARK   74  A    between atoms: _167  and  _168
REMARK   75  A    between atoms: _171  and  _173
REMARK   76  A    between atoms: _173  and  _174
REMARK   77  A    between atoms: _173  and  _176
REMARK   78  A    between atoms: _176  and  _177
REMARK   79  A    between atoms: _180  and  _182
REMARK   80  A    between atoms: _182  and  _183
REMARK   81  A    between atoms: _182  and  _185
REMARK   82  A    between atoms: _185  and  _186
REMARK   83  A    between atoms: _189  and  _191
REMARK   84  A    between atoms: _191  and  _192
REMARK   85  A    between atoms: _195  and  _197
REMARK   86  A    between atoms: _197  and  _198
REMARK   87  A    between atoms: _200  and  _202
REMARK   88  A    between atoms: _202  and  _203
REMARK   89  A    between atoms: _206  and  _208
REMARK   90  A    between atoms: _208  and  _209
REMARK   91  A    between atoms: _208  and  _211
REMARK   92  A    between atoms: _211  and  _212
REMARK   93  A    between atoms: _212  and  _213
REMARK   94  A    between atoms: _213  and  _214
REMARK   95  A    between atoms: _223  and  _225
REMARK   96  A    between atoms: _225  and  _226
REMARK   97  A    between atoms: _225  and  _228
REMARK   98  A    between atoms: _228  and  _229
REMARK   99  A    between atoms: _229  and  _230
REMARK  100  A    between atoms: _235  and  _237
REMARK  101  A    between atoms: _237  and  _238
REMARK  102  A    between atoms: _237  and  _240
REMARK  103  A    between atoms: _240  and  _241
REMARK  104  A    between atoms: _246  and  _248
REMARK  105  A    between atoms: _248  and  _249
REMARK  106  A    between atoms: _248  and  _251
REMARK  107  A    between atoms: _251  and  _252
REMARK  108  A    between atoms: _255  and  _257
REMARK  109  A    between atoms: _257  and  _258
REMARK  110  A    between atoms: _257  and  _260
REMARK  111  A    between atoms: _260  and  _261
REMARK  112  A    between atoms: _261  and  _262
REMARK  113  A    between atoms: _267  and  _269
REMARK  114  A    between atoms: _269  and  _270
REMARK  115  A    between atoms: _269  and  _272
REMARK  116  A    between atoms: _272  and  _273
REMARK  117  A    between atoms: _273  and  _274
REMARK  118  A    between atoms: _274  and  _275
REMARK  119  A    between atoms: _284  and  _286
REMARK  120  A    between atoms: _286  and  _287
REMARK  121  A    between atoms: _286  and  _289
REMARK  122  A    between atoms: _289  and  _290
REMARK  123  A    between atoms: _295  and  _297
REMARK  124  A    between atoms: _297  and  _298
REMARK  125  A    between atoms: _297  and  _300
REMARK  126  A    between atoms: _303  and  _305
REMARK  127  A    between atoms: _305  and  _306
REMARK  128  A    between atoms: _305  and  _308
REMARK  129  A    between atoms: _308  and  _309
REMARK  130  A    between atoms: _314  and  _316
REMARK  131  A    between atoms: _316  and  _317
REMARK  132  A    between atoms: _316  and  _319
REMARK  133  A    between atoms: _319  and  _320
REMARK  134  A    between atoms: _323  and  _325
REMARK  135  A    between atoms: _325  and  _326
REMARK  136  A    between atoms: _325  and  _328
REMARK  137  A    between atoms: _328  and  _329
REMARK  138  A    between atoms: _335  and  _337
REMARK  139  A    between atoms: _337  and  _338
REMARK  140  A    between atoms: _337  and  _340
REMARK  141  A    between atoms: _340  and  _341
REMARK  142  A    between atoms: _341  and  _342
REMARK  143  A    between atoms: _342  and  _343
REMARK  144  A    between atoms: _343  and  _344
REMARK  145  A    between atoms: _348  and  _350
REMARK  146  A    between atoms: _350  and  _351
REMARK  147  A    between atoms: _350  and  _353
REMARK  148  A    between atoms: _353  and  _354
REMARK  149  A    between atoms: _360  and  _362
REMARK  150  A    between atoms: _362  and  _363
REMARK  151  A    between atoms: _362  and  _365
REMARK  152  A    between atoms: _365  and  _366
REMARK  153  A    between atoms: _369  and  _371
REMARK  154  A    between atoms: _371  and  _372
REMARK  155  A    between atoms: _371  and  _374
REMARK  156  A    between atoms: _374  and  _375
REMARK  157  A    between atoms: _378  and  _380
REMARK  158  A    between atoms: _380  and  _381
REMARK  159  A    between atoms: _380  and  _383
REMARK  160  A    between atoms: _383  and  _384
REMARK  161  A    between atoms: _389  and  _391
REMARK  162  A    between atoms: _391  and  _392
REMARK  163  A    between atoms: _391  and  _394
REMARK  164  A    between atoms: _394  and  _395
REMARK  165  A    between atoms: _398  and  _400
REMARK  166  A    between atoms: _400  and  _401
REMARK  167  A    between atoms: _400  and  _403
REMARK  168  A    between atoms: _406  and  _408
REMARK  169  A    between atoms: _408  and  _409
REMARK  170  A    between atoms: _408  and  _411
REMARK  171  A    between atoms: _414  and  _416
REMARK  172  A    between atoms: _416  and  _417
REMARK  173  A    between atoms: _416  and  _419
REMARK  174  A    between atoms: _419  and  _420
REMARK  175  A    between atoms: _422  and  _424
REMARK  176  A    between atoms: _424  and  _425
REMARK  177  A    between atoms: _424  and  _427
REMARK  178  A    between atoms: _427  and  _428
REMARK  179  A    between atoms: _433  and  _435
REMARK  180  A    between atoms: _435  and  _436
REMARK  181  A    between atoms: _435  and  _438
REMARK  182  A    between atoms: _441  and  _443
REMARK  183  A    between atoms: _443  and  _444
REMARK  184  A    between atoms: _443  and  _446
REMARK  185  A    between atoms: _446  and  _447
REMARK  186  A    between atoms: _450  and  _452
REMARK  187  A    between atoms: _452  and  _453
REMARK  188  A    between atoms: _452  and  _455
REMARK  189  A    between atoms: _455  and  _456
REMARK  190  A    between atoms: _458  and  _460
REMARK  191  A    between atoms: _460  and  _461
REMARK  192  A    between atoms: _463  and  _465
REMARK  193  A    between atoms: _465  and  _466
REMARK  194  A    between atoms: _465  and  _468
REMARK  195  A    between atoms: _468  and  _469
REMARK  196  A    between atoms: _472  and  _474
REMARK  197  A    between atoms: _474  and  _475
REMARK  198  A    between atoms: _474  and  _477
REMARK  199  A    between atoms: _477  and  _478
REMARK  200  A    between atoms: _481  and  _483
REMARK  201  A    between atoms: _483  and  _484
REMARK  202  A    between atoms: _483  and  _486
REMARK  203  A    between atoms: _486  and  _487
REMARK  204  A    between atoms: _487  and  _488
REMARK  205  A    between atoms: _488  and  _489
REMARK  206  A    between atoms: _498  and  _500
REMARK  207  A    between atoms: _500  and  _501
REMARK  208  A    between atoms: _500  and  _503
REMARK  209  A    between atoms: _503  and  _504
REMARK  210  A    between atoms: _509  and  _511
REMARK  211  A    between atoms: _511  and  _512
REMARK  212  A    between atoms: _514  and  _516
REMARK  213  A    between atoms: _516  and  _517
REMARK  214  A    between atoms: _516  and  _519
REMARK  215  A    between atoms: _522  and  _524
REMARK  216  A    between atoms: _524  and  _525
REMARK  217  A    between atoms: _524  and  _527
REMARK  218  A    between atoms: _530  and  _532
REMARK  219  A    between atoms: _532  and  _533
REMARK  220  A    between atoms: _532  and  _535
REMARK  221  A    between atoms: _535  and  _536
REMARK  222  A    between atoms: _539  and  _541
REMARK  223  A    between atoms: _541  and  _542
REMARK  224  A    between atoms: _541  and  _544
REMARK  225  A    between atoms: _544  and  _545
REMARK  226  A    between atoms: _547  and  _549
REMARK  227  A    between atoms: _549  and  _550
REMARK  228  A    between atoms: _553  and  _555
REMARK  229  A    between atoms: _555  and  _556
REMARK  230  A    between atoms: _555  and  _558
REMARK  231  A    between atoms: _558  and  _559
REMARK  232  A    between atoms: _564  and  _565
REMARK  233  A    between atoms: _567  and  _569
REMARK  234  A    between atoms: _569  and  _570
REMARK  235  A    between atoms: _569  and  _572
REMARK  236  A    between atoms: _572  and  _573
REMARK  237  A    between atoms: _573  and  _574
REMARK  238  A    between atoms: _577  and  _579
REMARK  239  A    between atoms: _579  and  _580
REMARK  240  A    between atoms: _579  and  _582
REMARK  241  A    between atoms: _585  and  _587
REMARK  242  A    between atoms: _587  and  _588
REMARK  243  A    between atoms: _587  and  _590
REMARK  244  A    between atoms: _590  and  _591
REMARK  245  A    between atoms: _594  and  _596
REMARK  246  A    between atoms: _596  and  _597
REMARK  247  A    between atoms: _599  and  _601
REMARK  248  A    between atoms: _601  and  _602
REMARK  249  A    between atoms: _601  and  _604
REMARK  250  A    between atoms: _604  and  _605
REMARK  251  A    between atoms: _610  and  _611
REMARK  252  A    between atoms: _613  and  _615
REMARK  253  A    between atoms: _615  and  _616
REMARK  254  A    between atoms: _615  and  _618
REMARK  255  A    between atoms: _618  and  _619
REMARK  256  A    between atoms: _622  and  _624
REMARK  257  A    between atoms: _624  and  _625
REMARK  258  A    between atoms: _624  and  _627
REMARK  259  A    between atoms: _627  and  _628
REMARK  260  A    between atoms: _631  and  _633
REMARK  261  A    between atoms: _633  and  _634
REMARK  262  A    between atoms: _637  and  _639
REMARK  263  A    between atoms: _639  and  _640
REMARK  264  A    between atoms: _639  and  _642
REMARK  265  A    between atoms: _642  and  _643
REMARK  266  A    between atoms: _646  and  _648
REMARK  267  A    between atoms: _648  and  _649
REMARK  268  A    between atoms: _651  and  _653
REMARK  269  A    between atoms: _653  and  _654
REMARK  270  A    between atoms: _653  and  _656
REMARK  271  A    between atoms: _656  and  _657
REMARK  272  A    between atoms: _659  and  _661
REMARK  273  A    between atoms: _661  and  _662
REMARK  274  A    between atoms: _661  and  _664
REMARK  275  A    between atoms: _667  and  _669
REMARK  276  A    between atoms: _669  and  _670
REMARK  277  A    between atoms: _669  and  _672
REMARK  278  A    between atoms: _672  and  _673
REMARK  279  A    between atoms: _676  and  _678
REMARK  280  A    between atoms: _678  and  _679
REMARK  281  A    between atoms: _678  and  _681
REMARK  282  A    between atoms: _681  and  _682
REMARK                            x       y       z     vdW  Elec       q    Type
REMARK                         _______ _______ _______ _____ _____    ______ ____
ROOT
ATOM      1  O   HOH     1      14.880  15.909  49.929  0.00  0.00    +0.000 OA
ENDROOT
TORSDOF 0
REMARK  Name = ../refined-set-2016/4i9h/4i9h_pocket.pdb
REMARK  282 active torsions:
REMARK  status: ('A' for Active; 'I' for Inactive)
REMARK    1  A    between atoms: _1  and  _3
REMARK    2  A    between atoms: _3  and  _4
REMARK    3  A    between atoms: _3  and  _6
REMARK    4  A    between atoms: _9  and  _11
REMARK    5  A    between atoms: _11  and  _12
REMARK    6  A    between atoms: _11  and  _14
REMARK    7  A    between atoms: _17  and  _19
REMARK    8  A    between atoms: _19  and  _20
REMARK    9  A    between atoms: _22  and  _24
REMARK   10  A    between atoms: _24  and  _25
REMARK   11  A    between atoms: _24  and  _27
REMARK   12  A    between atoms: _30  and  _32
REMARK   13  A    between atoms: _32  and  _33
REMARK   14  A    between atoms: _35  and  _37
REMARK   15  A    between atoms: _37  and  _38
REMARK   16  A    between atoms: _41  and  _43
REMARK   17  A    between atoms: _43  and  _44
REMARK   18  A    between atoms: _43  and  _46
REMARK   19  A    between atoms: _49  and  _51
REMARK   20  A    between atoms: _51  and  _52
REMARK   21  A    between atoms: _54  and  _56
REMARK   22  A    between atoms: _56  and  _57
REMARK   23  A    between atoms: _56  and  _59
REMARK   24  A    between atoms: _59  and  _60
REMARK   25  A    between atoms: _60  and  _61
REMARK   26  A    between atoms: _63  and  _65
REMARK   27  A    between atoms: _65  and  _66
REMARK   28  A    between atoms: _65  and  _68
REMARK   29  A    between atoms: _70  and  _72
REMARK   30  A    between atoms: _72  and  _73
REMARK   31  A    between atoms: _72  and  _75
REMARK   32  A    between atoms: _75  and  _76
REMARK   33  A    between atoms: _79  and  _81
REMARK   34  A    between atoms: _81  and  _82
REMARK   35  A    between atoms: _81  and  _84
REMARK   36  A    between atoms: _87  and  _89
REMARK   37  A    between atoms: _89  and  _90
REMARK   38  A    between atoms: _89  and  _92
REMARK   39  A    between atoms: _92  and  _93
REMARK   40  A    between atoms: _96  and  _98
REMARK   41  A    between atoms: _98  and  _99
REMARK   42  A    between atoms: _98  and  _101
REMARK   43  A    between atoms: _104  and  _106
REMARK   44  A    between atoms: _106  and  _107
REMARK   45  A    between atoms: _106  and  _109
REMARK   46  A    between atoms: _109  and  _110
REMARK   47  A    between atoms: _110  and  _111
REMARK   48  A    between atoms: _113  and  _115
REMARK   49  A    between atoms: _115  and  _116
REMARK   50  A    between atoms: _115  and  _118
REMARK   51  A    between atoms: _118  and  _119
REMARK   52  A    between atoms: _119  and  _120
REMARK   53  A    between atoms: _120  and  _121
REMARK   54  A    between atoms: _121  and  _122
REMARK   55  A    between atoms: _126  and  _128
REMARK   56  A    between atoms: _128  and  _129
REMARK   57  A    between atoms: _128  and  _131
REMARK   58  A    between atoms: _131  and  _132
REMARK   59  A    between atoms: _135  and  _137
REMARK   60  A    between atoms: _137  and  _138
REMARK   61  A    between atoms: _137  and  _140
REMARK   62  A    between atoms: _140  and  _141
REMARK   63  A    between atoms: _141  and  _142
REMARK   64  A    between atoms: _142  and  _143
REMARK   65  A    between atoms: _143  and  _144
REMARK   66  A    between atoms: _148  and  _150
REMARK   67  A    between atoms: _150  and  _151
REMARK   68  A    between atoms: _150  and  _153
REMARK   69  A    between atoms: _153  and  _154
REMARK   70  A    between atoms: _159  and  _160
REMARK   71  A    between atoms: _162  and  _164
REMARK   72  A    between atoms: _164  and  _165
REMARK   73  A    between atoms: _164  and  _167
REMARK   74  A    between atoms: _167  and  _168
REMARK   75  A    between atoms: _171  and  _173
REMARK   76  A    between atoms: _173  and  _174
REMARK   77  A    between atoms: _173  and  _176
REMARK   78  A    between atoms: _176  and  _177
REMARK   79  A    between atoms: _180  and  _182
REMARK   80  A    between atoms: _182  and  _183
REMARK   81  A    between atoms: _182  and  _185
REMARK   82  A    between atoms: _185  and  _186
REMARK   83  A    between atoms: _189  and  _191
REMARK   84  A    between atoms: _191  and  _192
REMARK   85  A    between atoms: _195  and  _197
REMARK   86  A    between atoms: _197  and  _198
REMARK   87  A    between atoms: _200  and  _202
REMARK   88  A    between atoms: _202  and  _203
REMARK   89  A    between atoms: _206  and  _208
REMARK   90  A    between atoms: _208  and  _209
REMARK   91  A    between atoms: _208  and  _211
REMARK   92  A    between atoms: _211  and  _212
REMARK   93  A    between atoms: _212  and  _213
REMARK   94  A    between atoms: _213  and  _214
REMARK   95  A    between atoms: _223  and  _225
REMARK   96  A    between atoms: _225  and  _226
REMARK   97  A    between atoms: _225  and  _228
REMARK   98  A    between atoms: _228  and  _229
REMARK   99  A    between atoms: _229  and  _230
REMARK  100  A    between atoms: _235  and  _237
REMARK  101  A    between atoms: _237  and  _238
REMARK  102  A    between atoms: _237  and  _240
REMARK  103  A    between atoms: _240  and  _241
REMARK  104  A    between atoms: _246  and  _248
REMARK  105  A    between atoms: _248  and  _249
REMARK  106  A    between atoms: _248  and  _251
REMARK  107  A    between atoms: _251  and  _252
REMARK  108  A    between atoms: _255  and  _257
REMARK  109  A    between atoms: _257  and  _258
REMARK  110  A    between atoms: _257  and  _260
REMARK  111  A    between atoms: _260  and  _261
REMARK  112  A    between atoms: _261  and  _262
REMARK  113  A    between atoms: _267  and  _269
REMARK  114  A    between atoms: _269  and  _270
REMARK  115  A    between atoms: _269  and  _272
REMARK  116  A    between atoms: _272  and  _273
REMARK  117  A    between atoms: _273  and  _274
REMARK  118  A    between atoms: _274  and  _275
REMARK  119  A    between atoms: _284  and  _286
REMARK  120  A    between atoms: _286  and  _287
REMARK  121  A    between atoms: _286  and  _289
REMARK  122  A    between atoms: _289  and  _290
REMARK  123  A    between atoms: _295  and  _297
REMARK  124  A    between atoms: _297  and  _298
REMARK  125  A    between atoms: _297  and  _300
REMARK  126  A    between atoms: _303  and  _305
REMARK  127  A    between atoms: _305  and  _306
REMARK  128  A    between atoms: _305  and  _308
REMARK  129  A    between atoms: _308  and  _309
REMARK  130  A    between atoms: _314  and  _316
REMARK  131  A    between atoms: _316  and  _317
REMARK  132  A    between atoms: _316  and  _319
REMARK  133  A    between atoms: _319  and  _320
REMARK  134  A    between atoms: _323  and  _325
REMARK  135  A    between atoms: _325  and  _326
REMARK  136  A    between atoms: _325  and  _328
REMARK  137  A    between atoms: _328  and  _329
REMARK  138  A    between atoms: _335  and  _337
REMARK  139  A    between atoms: _337  and  _338
REMARK  140  A    between atoms: _337  and  _340
REMARK  141  A    between atoms: _340  and  _341
REMARK  142  A    between atoms: _341  and  _342
REMARK  143  A    between atoms: _342  and  _343
REMARK  144  A    between atoms: _343  and  _344
REMARK  145  A    between atoms: _348  and  _350
REMARK  146  A    between atoms: _350  and  _351
REMARK  147  A    between atoms: _350  and  _353
REMARK  148  A    between atoms: _353  and  _354
REMARK  149  A    between atoms: _360  and  _362
REMARK  150  A    between atoms: _362  and  _363
REMARK  151  A    between atoms: _362  and  _365
REMARK  152  A    between atoms: _365  and  _366
REMARK  153  A    between atoms: _369  and  _371
REMARK  154  A    between atoms: _371  and  _372
REMARK  155  A    between atoms: _371  and  _374
REMARK  156  A    between atoms: _374  and  _375
REMARK  157  A    between atoms: _378  and  _380
REMARK  158  A    between atoms: _380  and  _381
REMARK  159  A    between atoms: _380  and  _383
REMARK  160  A    between atoms: _383  and  _384
REMARK  161  A    between atoms: _389  and  _391
REMARK  162  A    between atoms: _391  and  _392
REMARK  163  A    between atoms: _391  and  _394
REMARK  164  A    between atoms: _394  and  _395
REMARK  165  A    between atoms: _398  and  _400
REMARK  166  A    between atoms: _400  and  _401
REMARK  167  A    between atoms: _400  and  _403
REMARK  168  A    between atoms: _406  and  _408
REMARK  169  A    between atoms: _408  and  _409
REMARK  170  A    between atoms: _408  and  _411
REMARK  171  A    between atoms: _414  and  _416
REMARK  172  A    between atoms: _416  and  _417
REMARK  173  A    between atoms: _416  and  _419
REMARK  174  A    between atoms: _419  and  _420
REMARK  175  A    between atoms: _422  and  _424
REMARK  176  A    between atoms: _424  and  _425
REMARK  177  A    between atoms: _424  and  _427
REMARK  178  A    between atoms: _427  and  _428
REMARK  179  A    between atoms: _433  and  _435
REMARK  180  A    between atoms: _435  and  _436
REMARK  181  A    between atoms: _435  and  _438
REMARK  182  A    between atoms: _441  and  _443
REMARK  183  A    between atoms: _443  and  _444
REMARK  184  A    between atoms: _443  and  _446
REMARK  185  A    between atoms: _446  and  _447
REMARK  186  A    between atoms: _450  and  _452
REMARK  187  A    between atoms: _452  and  _453
REMARK  188  A    between atoms: _452  and  _455
REMARK  189  A    between atoms: _455  and  _456
REMARK  190  A    between atoms: _458  and  _460
REMARK  191  A    between atoms: _460  and  _461
REMARK  192  A    between atoms: _463  and  _465
REMARK  193  A    between atoms: _465  and  _466
REMARK  194  A    between atoms: _465  and  _468
REMARK  195  A    between atoms: _468  and  _469
REMARK  196  A    between atoms: _472  and  _474
REMARK  197  A    between atoms: _474  and  _475
REMARK  198  A    between atoms: _474  and  _477
REMARK  199  A    between atoms: _477  and  _478
REMARK  200  A    between atoms: _481  and  _483
REMARK  201  A    between atoms: _483  and  _484
REMARK  202  A    between atoms: _483  and  _486
REMARK  203  A    between atoms: _486  and  _487
REMARK  204  A    between atoms: _487  and  _488
REMARK  205  A    between atoms: _488  and  _489
REMARK  206  A    between atoms: _498  and  _500
REMARK  207  A    between atoms: _500  and  _501
REMARK  208  A    between atoms: _500  and  _503
REMARK  209  A    between atoms: _503  and  _504
REMARK  210  A    between atoms: _509  and  _511
REMARK  211  A    between atoms: _511  and  _512
REMARK  212  A    between atoms: _514  and  _516
REMARK  213  A    between atoms: _516  and  _517
REMARK  214  A    between atoms: _516  and  _519
REMARK  215  A    between atoms: _522  and  _524
REMARK  216  A    between atoms: _524  and  _525
REMARK  217  A    between atoms: _524  and  _527
REMARK  218  A    between atoms: _530  and  _532
REMARK  219  A    between atoms: _532  and  _533
REMARK  220  A    between atoms: _532  and  _535
REMARK  221  A    between atoms: _535  and  _536
REMARK  222  A    between atoms: _539  and  _541
REMARK  223  A    between atoms: _541  and  _542
REMARK  224  A    between atoms: _541  and  _544
REMARK  225  A    between atoms: _544  and  _545
REMARK  226  A    between atoms: _547  and  _549
REMARK  227  A    between atoms: _549  and  _550
REMARK  228  A    between atoms: _553  and  _555
REMARK  229  A    between atoms: _555  and  _556
REMARK  230  A    between atoms: _555  and  _558
REMARK  231  A    between atoms: _558  and  _559
REMARK  232  A    between atoms: _564  and  _565
REMARK  233  A    between atoms: _567  and  _569
REMARK  234  A    between atoms: _569  and  _570
REMARK  235  A    between atoms: _569  and  _572
REMARK  236  A    between atoms: _572  and  _573
REMARK  237  A    between atoms: _573  and  _574
REMARK  238  A    between atoms: _577  and  _579
REMARK  239  A    between atoms: _579  and  _580
REMARK  240  A    between atoms: _579  and  _582
REMARK  241  A    between atoms: _585  and  _587
REMARK  242  A    between atoms: _587  and  _588
REMARK  243  A    between atoms: _587  and  _590
REMARK  244  A    between atoms: _590  and  _591
REMARK  245  A    between atoms: _594  and  _596
REMARK  246  A    between atoms: _596  and  _597
REMARK  247  A    between atoms: _599  and  _601
REMARK  248  A    between atoms: _601  and  _602
REMARK  249  A    between atoms: _601  and  _604
REMARK  250  A    between atoms: _604  and  _605
REMARK  251  A    between atoms: _610  and  _611
REMARK  252  A    between atoms: _613  and  _615
REMARK  253  A    between atoms: _615  and  _616
REMARK  254  A    between atoms: _615  and  _618
REMARK  255  A    between atoms: _618  and  _619
REMARK  256  A    between atoms: _622  and  _624
REMARK  257  A    between atoms: _624  and  _625
REMARK  258  A    between atoms: _624  and  _627
REMARK  259  A    between atoms: _627  and  _628
REMARK  260  A    between atoms: _631  and  _633
REMARK  261  A    between atoms: _633  and  _634
REMARK  262  A    between atoms: _637  and  _639
REMARK  263  A    between atoms: _639  and  _640
REMARK  264  A    between atoms: _639  and  _642
REMARK  265  A    between atoms: _642  and  _643
REMARK  266  A    between atoms: _646  and  _648
REMARK  267  A    between atoms: _648  and  _649
REMARK  268  A    between atoms: _651  and  _653
REMARK  269  A    between atoms: _653  and  _654
REMARK  270  A    between atoms: _653  and  _656
REMARK  271  A    between atoms: _656  and  _657
REMARK  272  A    between atoms: _659  and  _661
REMARK  273  A    between atoms: _661  and  _662
REMARK  274  A    between atoms: _661  and  _664
REMARK  275  A    between atoms: _667  and  _669
REMARK  276  A    between atoms: _669  and  _670
REMARK  277  A    between atoms: _669  and  _672
REMARK  278  A    between atoms: _672  and  _673
REMARK  279  A    between atoms: _676  and  _678
REMARK  280  A    between atoms: _678  and  _679
REMARK  281  A    between atoms: _678  and  _681
REMARK  282  A    between atoms: _681  and  _682
REMARK                            x       y       z     vdW  Elec       q    Type
REMARK                         _______ _______ _______ _____ _____    ______ ____
ROOT
ATOM      1  O   HOH     1      12.863  17.424  52.397  0.00  0.00    +0.000 OA
ENDROOT
TORSDOF 0
