REMARK  Name = ../refined-set-2016/2wor/2wor_pocket.pdb
REMARK  116 active torsions:
REMARK  status: ('A' for Active; 'I' for Inactive)
REMARK    1  A    between atoms: _1  and  _3
REMARK    2  A    between atoms: _3  and  _4
REMARK    3  A    between atoms: _3  and  _6
REMARK    4  A    between atoms: _6  and  _7
REMARK    5  A    between atoms: _10  and  _12
REMARK    6  A    between atoms: _12  and  _13
REMARK    7  A    between atoms: _12  and  _15
REMARK    8  A    between atoms: _15  and  _16
REMARK    9  A    between atoms: _16  and  _17
REMARK   10  A    between atoms: _22  and  _24
REMARK   11  A    between atoms: _24  and  _25
REMARK   12  A    between atoms: _28  and  _30
REMARK   13  A    between atoms: _30  and  _31
REMARK   14  A    between atoms: _30  and  _33
REMARK   15  A    between atoms: _33  and  _34
REMARK   16  A    between atoms: _34  and  _35
REMARK   17  A    between atoms: _38  and  _40
REMARK   18  A    between atoms: _40  and  _41
REMARK   19  A    between atoms: _40  and  _43
REMARK   20  A    between atoms: _43  and  _44
REMARK   21  A    between atoms: _44  and  _45
REMARK   22  A    between atoms: _45  and  _46
REMARK   23  A    between atoms: _55  and  _57
REMARK   24  A    between atoms: _57  and  _58
REMARK   25  A    between atoms: _57  and  _60
REMARK   26  A    between atoms: _60  and  _61
REMARK   27  A    between atoms: _63  and  _65
REMARK   28  A    between atoms: _65  and  _66
REMARK   29  A    between atoms: _65  and  _68
REMARK   30  A    between atoms: _68  and  _69
REMARK   31  A    between atoms: _72  and  _74
REMARK   32  A    between atoms: _74  and  _75
REMARK   33  A    between atoms: _74  and  _77
REMARK   34  A    between atoms: _77  and  _78
REMARK   35  A    between atoms: _81  and  _83
REMARK   36  A    between atoms: _83  and  _84
REMARK   37  A    between atoms: _86  and  _88
REMARK   38  A    between atoms: _88  and  _89
REMARK   39  A    between atoms: _88  and  _91
REMARK   40  A    between atoms: _91  and  _92
REMARK   41  A    between atoms: _92  and  _93
REMARK   42  A    between atoms: _95  and  _97
REMARK   43  A    between atoms: _97  and  _98
REMARK   44  A    between atoms: _97  and  _100
REMARK   45  A    between atoms: _100  and  _101
REMARK   46  A    between atoms: _104  and  _106
REMARK   47  A    between atoms: _106  and  _107
REMARK   48  A    between atoms: _106  and  _109
REMARK   49  A    between atoms: _109  and  _110
REMARK   50  A    between atoms: _113  and  _115
REMARK   51  A    between atoms: _115  and  _116
REMARK   52  A    between atoms: _115  and  _118
REMARK   53  A    between atoms: _118  and  _119
REMARK   54  A    between atoms: _119  and  _120
REMARK   55  A    between atoms: _122  and  _124
REMARK   56  A    between atoms: _124  and  _125
REMARK   57  A    between atoms: _124  and  _127
REMARK   58  A    between atoms: _127  and  _128
REMARK   59  A    between atoms: _134  and  _136
REMARK   60  A    between atoms: _136  and  _137
REMARK   61  A    between atoms: _136  and  _139
REMARK   62  A    between atoms: _139  and  _140
REMARK   63  A    between atoms: _145  and  _147
REMARK   64  A    between atoms: _147  and  _148
REMARK   65  A    between atoms: _147  and  _150
REMARK   66  A    between atoms: _150  and  _151
REMARK   67  A    between atoms: _151  and  _152
REMARK   68  A    between atoms: _152  and  _153
REMARK   69  A    between atoms: _153  and  _154
REMARK   70  A    between atoms: _158  and  _160
REMARK   71  A    between atoms: _160  and  _161
REMARK   72  A    between atoms: _160  and  _163
REMARK   73  A    between atoms: _163  and  _164
REMARK   74  A    between atoms: _169  and  _170
REMARK   75  A    between atoms: _172  and  _174
REMARK   76  A    between atoms: _174  and  _175
REMARK   77  A    between atoms: _174  and  _177
REMARK   78  A    between atoms: _177  and  _178
REMARK   79  A    between atoms: _183  and  _185
REMARK   80  A    between atoms: _185  and  _186
REMARK   81  A    between atoms: _185  and  _188
REMARK   82  A    between atoms: _188  and  _189
REMARK   83  A    between atoms: _195  and  _197
REMARK   84  A    between atoms: _197  and  _198
REMARK   85  A    between atoms: _197  and  _200
REMARK   86  A    between atoms: _200  and  _201
REMARK   87  A    between atoms: _207  and  _209
REMARK   88  A    between atoms: _209  and  _210
REMARK   89  A    between atoms: _209  and  _212
REMARK   90  A    between atoms: _212  and  _213
REMARK   91  A    between atoms: _216  and  _218
REMARK   92  A    between atoms: _218  and  _219
REMARK   93  A    between atoms: _218  and  _221
REMARK   94  A    between atoms: _221  and  _222
REMARK   95  A    between atoms: _222  and  _223
REMARK   96  A    between atoms: _228  and  _230
REMARK   97  A    between atoms: _230  and  _231
REMARK   98  A    between atoms: _234  and  _236
REMARK   99  A    between atoms: _236  and  _237
REMARK  100  A    between atoms: _236  and  _239
REMARK  101  A    between atoms: _239  and  _240
REMARK  102  A    between atoms: _240  and  _241
REMARK  103  A    between atoms: _244  and  _246
REMARK  104  A    between atoms: _246  and  _247
REMARK  105  A    between atoms: _246  and  _249
REMARK  106  A    between atoms: _249  and  _250
REMARK  107  A    between atoms: _250  and  _251
REMARK  108  A    between atoms: _251  and  _252
REMARK  109  A    between atoms: _261  and  _263
REMARK  110  A    between atoms: _263  and  _264
REMARK  111  A    between atoms: _263  and  _266
REMARK  112  A    between atoms: _266  and  _267
REMARK  113  A    between atoms: _269  and  _271
REMARK  114  A    between atoms: _271  and  _272
REMARK  115  A    between atoms: _271  and  _274
REMARK  116  A    between atoms: _274  and  _275
REMARK                            x       y       z     vdW  Elec       q    Type
REMARK                         _______ _______ _______ _____ _____    ______ ____
ROOT
ATOM      1  C   GLY A   9       3.608   9.440   5.207  0.00  0.00    +0.243 C 
ATOM      2  O   GLY A   9       3.626   9.286   6.495  0.00  0.00    -0.273 OA
ATOM      3  N   MET A  10       4.661   9.865   4.522  0.00  0.00    -0.297 N 
ATOM      4  H   MET A  10       4.599   9.927   3.486  0.00  0.00    +0.150 HD
ENDROOT
BRANCH   3   5
ATOM      5  CA  MET A  10       5.935  10.258   5.198  0.00  0.00    +0.149 C 
BRANCH   5   6
ATOM      6  C   MET A  10       5.718  11.530   6.049  0.00  0.00    +0.241 C 
ATOM      7  O   MET A  10       6.289  11.632   7.146  0.00  0.00    -0.273 OA
ATOM      8  N   ILE A  11       4.831  12.413   5.609  0.00  0.00    -0.297 N 
ATOM      9  H   ILE A  11       4.350  12.241   4.703  0.00  0.00    +0.150 HD
BRANCH   8  10
ATOM     10  CA  ILE A  11       4.505  13.652   6.385  0.00  0.00    +0.149 C 
BRANCH  10  11
ATOM     11  C   ILE A  11       3.726  13.172   7.646  0.00  0.00    +0.241 C 
ATOM     12  O   ILE A  11       3.946  13.658   8.784  0.00  0.00    -0.273 OA
ATOM     13  N   ASP A  12       2.763  12.311   7.414  0.00  0.00    -0.297 N 
ATOM     14  H   ASP A  12       2.566  11.968   6.452  0.00  0.00    +0.150 HD
BRANCH  13  15
ATOM     15  CA  ASP A  12       1.966  11.846   8.578  0.00  0.00    +0.160 C 
BRANCH  15  16
ATOM     16  C   ASP A  12       2.852  11.086   9.571  0.00  0.00    +0.241 C 
ATOM     17  O   ASP A  12       2.693  11.258  10.823  0.00  0.00    -0.273 OA
ATOM     18  N   MET A  13       3.785  10.257   9.057  0.00  0.00    -0.297 N 
ATOM     19  H   MET A  13       3.811  10.065   8.035  0.00  0.00    +0.150 HD
BRANCH  18  20
ATOM     20  CA  MET A  13       4.782   9.617   9.973  0.00  0.00    +0.149 C 
BRANCH  20  21
ATOM     21  C   MET A  13       5.580  10.674  10.751  0.00  0.00    +0.241 C 
ATOM     22  O   MET A  13       5.746  10.500  11.994  0.00  0.00    -0.273 OA
ATOM     23  N   PHE A  14       6.097  11.742  10.113  0.00  0.00    -0.297 N 
ATOM     24  H   PHE A  14       5.984  11.818   9.082  0.00  0.00    +0.150 HD
BRANCH  23  25
ATOM     25  CA  PHE A  14       6.804  12.785  10.822  0.00  0.00    +0.153 C 
BRANCH  25  26
ATOM     26  C   PHE A  14       5.951  13.343  11.965  0.00  0.00    +0.241 C 
ATOM     27  O   PHE A  14       6.466  13.507  13.084  0.00  0.00    -0.273 OA
ATOM     28  N   HIS A  15       4.671  13.563  11.674  0.00  0.00    -0.297 N 
ATOM     29  H   HIS A  15       4.301  13.340  10.728  0.00  0.00    +0.150 HD
BRANCH  28  30
ATOM     30  CA  HIS A  15       3.774  14.131  12.717  0.00  0.00    +0.155 C 
BRANCH  30  31
ATOM     31  C   HIS A  15       3.422  13.120  13.819  0.00  0.00    +0.241 C 
ATOM     32  O   HIS A  15       2.792  13.583  14.781  0.00  0.00    -0.273 OA
ATOM     33  N   LYS A  16       3.703  11.815  13.741  0.00  0.00    -0.297 N 
ATOM     34  H   LYS A  16       4.053  11.402  12.853  0.00  0.00    +0.150 HD
BRANCH  33  35
ATOM     35  CA  LYS A  16       3.508  10.970  14.936  0.00  0.00    +0.149 C 
BRANCH  35  36
ATOM     36  C   LYS A  16       4.551  11.376  15.998  0.00  0.00    +0.241 C 
ATOM     37  O   LYS A  16       4.321  11.037  17.196  0.00  0.00    -0.273 OA
ATOM     38  N   TYR A  17       5.684  11.965  15.574  0.00  0.00    -0.298 N 
ATOM     39  H   TYR A  17       5.747  12.365  14.616  0.00  0.00    +0.150 HD
BRANCH  38  40
ATOM     40  CA  TYR A  17       6.835  12.032  16.494  0.00  0.00    +0.141 C 
BRANCH  40  41
ATOM     41  C   TYR A  17       7.217  13.446  16.893  0.00  0.00    +0.227 C 
ATOM     42  O   TYR A  17       8.139  13.608  17.741  0.00  0.00    -0.286 OA
ENDBRANCH  40  41
BRANCH  40  43
ATOM     43  CB  TYR A  17       8.079  11.336  15.852  0.00  0.00    +0.054 C 
BRANCH  43  44
ATOM     44  CG  TYR A  17       7.816   9.908  15.582  0.00  0.00    -0.020 A 
ATOM     45  CD2 TYR A  17       7.916   8.899  16.565  0.00  0.00    -0.001 A 
ATOM     46  CE2 TYR A  17       7.656   7.510  16.274  0.00  0.00    +0.036 A 
ATOM     47  CZ  TYR A  17       7.242   7.165  14.935  0.00  0.00    +0.134 A 
ATOM     48  CE1 TYR A  17       7.178   8.135  13.997  0.00  0.00    +0.036 A 
ATOM     49  CD1 TYR A  17       7.499   9.452  14.261  0.00  0.00    -0.001 A 
BRANCH  47  50
ATOM     50  OH  TYR A  17       7.056   5.836  14.724  0.00  0.00    -0.506 OA
ATOM     51  HH  TYR A  17       7.159   5.350  15.580  0.00  0.00    +0.292 HD
ENDBRANCH  47  50
ENDBRANCH  43  44
ENDBRANCH  40  43
ENDBRANCH  38  40
ENDBRANCH  35  36
BRANCH  35  52
ATOM     52  CB  LYS A  16       3.757   9.518  14.479  0.00  0.00    +0.029 C 
BRANCH  52  53
ATOM     53  CG  LYS A  16       3.747   8.394  15.355  0.00  0.00    +0.000 C 
BRANCH  53  54
ATOM     54  CD  LYS A  16       2.849   7.343  14.461  0.00  0.00    -0.024 C 
BRANCH  54  55
ATOM     55  CE  LYS A  16       3.618   6.480  13.636  0.00  0.00    -0.086 C 
BRANCH  55  56
ATOM     56  NZ  LYS A  16       3.772   4.991  14.290  0.00  0.00    +0.380 N 
ATOM     57  HZ1 LYS A  16       4.244   5.066  15.213  0.00  0.00    -0.089 HD
ATOM     58  HZ2 LYS A  16       2.830   4.569  14.415  0.00  0.00    -0.089 HD
ATOM     59  HZ3 LYS A  16       4.340   4.393  13.657  0.00  0.00    -0.089 HD
ENDBRANCH  55  56
ENDBRANCH  54  55
ENDBRANCH  53  54
ENDBRANCH  52  53
ENDBRANCH  35  52
ENDBRANCH  33  35
ENDBRANCH  30  31
BRANCH  30  60
ATOM     60  CB  HIS A  15       2.514  14.677  11.998  0.00  0.00    +0.076 C 
BRANCH  60  61
ATOM     61  CG  HIS A  15       2.764  15.980  11.346  0.00  0.00    +0.082 A 
ATOM     62  CD2 HIS A  15       3.637  16.978  11.651  0.00  0.00    +0.115 A 
ATOM     63  NE2 HIS A  15       3.410  18.004  10.725  0.00  0.00    -0.221 NA
ATOM     64  CE1 HIS A  15       2.419  17.612   9.908  0.00  0.00    +0.199 A 
ATOM     65  ND1 HIS A  15       2.017  16.391  10.243  0.00  0.00    -0.227 NA
ENDBRANCH  60  61
ENDBRANCH  30  60
ENDBRANCH  28  30
ENDBRANCH  25  26
BRANCH  25  66
ATOM     66  CB  PHE A  14       7.040  13.927   9.788  0.00  0.00    +0.055 C 
BRANCH  66  67
ATOM     67  CG  PHE A  14       7.735  15.161  10.329  0.00  0.00    -0.020 A 
ATOM     68  CD2 PHE A  14       9.104  15.127  10.682  0.00  0.00    -0.004 A 
ATOM     69  CE2 PHE A  14       9.724  16.311  11.174  0.00  0.00    -0.000 A 
ATOM     70  CZ  PHE A  14       8.961  17.490  11.293  0.00  0.00    -0.000 A 
ATOM     71  CE1 PHE A  14       7.577  17.497  10.967  0.00  0.00    -0.000 A 
ATOM     72  CD1 PHE A  14       7.015  16.347  10.507  0.00  0.00    -0.004 A 
ENDBRANCH  66  67
ENDBRANCH  25  66
ENDBRANCH  23  25
ENDBRANCH  20  21
BRANCH  20  73
ATOM     73  CB  MET A  13       5.739   8.712   9.134  0.00  0.00    +0.041 C 
BRANCH  73  74
ATOM     74  CG  MET A  13       6.729   7.892  10.071  0.00  0.00    +0.060 C 
BRANCH  74  75
ATOM     75  SD  MET A  13       7.999   7.057   9.031  0.00  0.00    -0.139 S 
ATOM     76  CE  MET A  13       8.988   8.391   8.469  0.00  0.00    +0.069 C 
ENDBRANCH  74  75
ENDBRANCH  73  74
ENDBRANCH  20  73
ENDBRANCH  18  20
ENDBRANCH  15  16
BRANCH  15  77
ATOM     77  CB  ASP A  12       0.784  10.929   8.074  0.00  0.00    +0.143 C 
BRANCH  77  78
ATOM     78  CG  ASP A  12      -0.267  11.733   7.298  0.00  0.00    +0.367 C 
ATOM     79  OD2 ASP A  12      -0.248  12.996   7.369  0.00  0.00    -0.246 OA
ATOM     80  OD1 ASP A  12      -1.074  11.072   6.565  0.00  0.00    -0.246 OA
ENDBRANCH  77  78
ENDBRANCH  15  77
ENDBRANCH  13  15
ENDBRANCH  10  11
BRANCH  10  81
ATOM     81  CB  ILE A  11       3.748  14.631   5.537  0.00  0.00    +0.027 C 
ATOM     82  CG2 ILE A  11       3.045  15.708   6.439  0.00  0.00    +0.002 C 
BRANCH  81  83
ATOM     83  CG1 ILE A  11       4.779  15.262   4.503  0.00  0.00    +0.002 C 
ATOM     84  CD1 ILE A  11       4.003  15.706   3.283  0.00  0.00    +0.000 C 
ENDBRANCH  81  83
ENDBRANCH  10  81
ENDBRANCH   8  10
ENDBRANCH   5   6
BRANCH   5  85
ATOM     85  CB  MET A  10       7.087  10.476   4.169  0.00  0.00    +0.041 C 
BRANCH  85  86
ATOM     86  CG  MET A  10       7.609   9.177   3.661  0.00  0.00    +0.060 C 
BRANCH  86  87
ATOM     87  SD  MET A  10       8.153   7.865   4.814  0.00  0.00    -0.139 S 
ATOM     88  CE  MET A  10       9.637   7.346   3.911  0.00  0.00    +0.069 C 
ENDBRANCH  86  87
ENDBRANCH  85  86
ENDBRANCH   5  85
ENDBRANCH   3   5
BRANCH   1  89
ATOM     89  CA  GLY A   9       2.363   8.997   4.440  0.00  0.00    +0.176 C 
BRANCH  89  92
ATOM     90  C   ILE A   8       1.802  11.219   3.585  0.00  0.00    +0.241 C 
ATOM     91  O   ILE A   8       1.801  11.709   4.737  0.00  0.00    -0.273 OA
ATOM     92  N   GLY A   9       2.086   9.923   3.336  0.00  0.00    -0.295 N 
ATOM     93  H   GLY A   9       2.109   9.579   2.355  0.00  0.00    +0.150 HD
BRANCH  90  94
ATOM     94  CA  ILE A   8       1.516  12.122   2.373  0.00  0.00    +0.149 C 
BRANCH  94  97
ATOM     95  C   ILE A   7       3.788  11.899   1.453  0.00  0.00    +0.241 C 
ATOM     96  O   ILE A   7       4.301  12.324   2.543  0.00  0.00    -0.273 OA
ATOM     97  N   ILE A   8       2.457  11.757   1.255  0.00  0.00    -0.297 N 
ATOM     98  H   ILE A   8       2.091  11.403   0.348  0.00  0.00    +0.150 HD
BRANCH  95  99
ATOM     99  CA  ILE A   7       4.679  11.498   0.295  0.00  0.00    +0.149 C 
BRANCH  99 102
ATOM    100  C   SER A   6       4.405   9.081   0.492  0.00  0.00    +0.243 C 
ATOM    101  O   SER A   6       4.840   9.112   1.637  0.00  0.00    -0.273 OA
ATOM    102  N   ILE A   7       4.292  10.167  -0.279  0.00  0.00    -0.297 N 
ATOM    103  H   ILE A   7       3.943  10.091  -1.256  0.00  0.00    +0.150 HD
BRANCH 100 104
ATOM    104  CA  SER A   6       3.983   7.776  -0.090  0.00  0.00    +0.178 C 
BRANCH 104 107
ATOM    105  C   ARG A   5       1.561   8.187  -0.139  0.00  0.00    +0.241 C 
ATOM    106  O   ARG A   5       1.541   8.385   1.103  0.00  0.00    -0.273 OA
ATOM    107  N   SER A   6       2.701   7.921  -0.809  0.00  0.00    -0.295 N 
ATOM    108  H   SER A   6       2.677   7.817  -1.843  0.00  0.00    +0.150 HD
BRANCH 105 109
ATOM    109  CA  ARG A   5       0.289   8.347  -0.940  0.00  0.00    +0.149 C 
BRANCH 109 112
ATOM    110  C   GLU A   4       1.066  10.227  -2.330  0.00  0.00    +0.241 C 
ATOM    111  O   GLU A   4       1.355  10.914  -1.346  0.00  0.00    -0.273 OA
ATOM    112  N   ARG A   5       0.540   8.972  -2.277  0.00  0.00    -0.297 N 
ATOM    113  H   ARG A   5       0.316   8.456  -3.152  0.00  0.00    +0.150 HD
BRANCH 110 114
ATOM    114  CA  GLU A   4       1.331  10.809  -3.733  0.00  0.00    +0.149 C 
BRANCH 114 117
ATOM    115  C   ALA A   3       3.145   9.295  -4.298  0.00  0.00    +0.241 C 
ATOM    116  O   ALA A   3       3.773   9.653  -3.303  0.00  0.00    -0.273 OA
ATOM    117  N   GLU A   4       1.906   9.736  -4.570  0.00  0.00    -0.297 N 
ATOM    118  H   GLU A   4       1.361   9.329  -5.356  0.00  0.00    +0.150 HD
BRANCH 115 119
ATOM    119  CA  ALA A   3       3.702   8.191  -5.164  0.00  0.00    +0.149 C 
ATOM    120  CB  ALA A   3       4.282   8.799  -6.459  0.00  0.00    +0.031 C 
BRANCH 119 123
ATOM    121  C   GLN A   2       2.224   6.369  -4.516  0.00  0.00    +0.241 C 
ATOM    122  O   GLN A   2       2.594   6.470  -3.353  0.00  0.00    -0.273 OA
ATOM    123  N   ALA A   3       2.683   7.142  -5.507  0.00  0.00    -0.297 N 
ATOM    124  H   ALA A   3       2.345   7.020  -6.483  0.00  0.00    +0.150 HD
BRANCH 121 125
ATOM    125  CA  GLN A   2       1.197   5.314  -4.889  0.00  0.00    +0.149 C 
BRANCH 125 128
ATOM    126  C   THR A   1      -0.492   6.934  -5.576  0.00  0.00    +0.241 C 
ATOM    127  O   THR A   1      -0.437   7.501  -4.462  0.00  0.00    -0.274 OA
ATOM    128  N   GLN A   2       0.262   5.877  -5.910  0.00  0.00    -0.297 N 
ATOM    129  H   GLN A   2       0.198   5.458  -6.860  0.00  0.00    +0.150 HD
BRANCH 126 130
ATOM    130  CA  THR A   1      -1.404   7.514  -6.661  0.00  0.00    +0.172 C 
BRANCH 130 131
ATOM    131  CB  THR A   1      -0.399   8.080  -7.720  0.00  0.00    +0.135 C 
ATOM    132  CG2 THR A   1      -1.202   8.748  -8.881  0.00  0.00    +0.034 C 
BRANCH 131 133
ATOM    133  OG1 THR A   1       0.410   9.090  -7.098  0.00  0.00    -0.383 OA
ATOM    134  HG1 THR A   1       1.049   9.454  -7.761  0.00  0.00    +0.210 HD
ENDBRANCH 131 133
ENDBRANCH 130 131
BRANCH 130 135
ATOM    135  N   THR A   1      -2.248   8.572  -6.167  0.00  0.00    -0.236 NA
ATOM    136  H   THR A   1      -2.036   9.565  -6.392  0.00  0.00    +0.142 HD
ENDBRANCH 130 135
ENDBRANCH 126 130
ENDBRANCH 125 128
BRANCH 125 137
ATOM    137  CB  GLN A   2       1.955   4.046  -5.297  0.00  0.00    +0.039 C 
BRANCH 137 138
ATOM    138  CG  GLN A   2       0.994   2.953  -5.532  0.00  0.00    +0.087 C 
BRANCH 138 139
ATOM    139  CD  GLN A   2       1.667   1.731  -6.109  0.00  0.00    +0.219 C 
ATOM    140  NE2 GLN A   2       1.805   0.688  -5.247  0.00  0.00    -0.329 N 
ATOM    141 HE21 GLN A   2       1.492   0.784  -4.260  0.00  0.00    +0.145 HD
ATOM    142 HE22 GLN A   2       2.223  -0.206  -5.575  0.00  0.00    +0.145 HD
ATOM    143  OE1 GLN A   2       2.024   1.706  -7.346  0.00  0.00    -0.275 OA
ENDBRANCH 138 139
ENDBRANCH 137 138
ENDBRANCH 125 137
ENDBRANCH 121 125
ENDBRANCH 119 123
ENDBRANCH 115 119
ENDBRANCH 114 117
BRANCH 114 144
ATOM    144  CB  GLU A   4      -0.025  11.218  -4.343  0.00  0.00    +0.041 C 
BRANCH 144 145
ATOM    145  CG  GLU A   4       0.343  12.073  -5.635  0.00  0.00    +0.116 C 
BRANCH 145 146
ATOM    146  CD  GLU A   4      -0.961  12.240  -6.531  0.00  0.00    +0.365 C 
ATOM    147  OE2 GLU A   4      -1.949  11.418  -6.442  0.00  0.00    -0.246 OA
ATOM    148  OE1 GLU A   4      -0.949  13.255  -7.305  0.00  0.00    -0.246 OA
ENDBRANCH 145 146
ENDBRANCH 144 145
ENDBRANCH 114 144
ENDBRANCH 110 114
ENDBRANCH 109 112
BRANCH 109 149
ATOM    149  CB  ARG A   5      -0.388   6.980  -1.141  0.00  0.00    +0.033 C 
BRANCH 149 150
ATOM    150  CG  ARG A   5      -1.881   7.112  -1.559  0.00  0.00    +0.045 C 
BRANCH 150 151
ATOM    151  CD  ARG A   5      -2.389   5.623  -1.402  0.00  0.00    +0.174 C 
BRANCH 151 152
ATOM    152  NE  ARG A   5      -2.090   4.869  -2.606  0.00  0.00    -0.265 N 
ATOM    153  HE  ARG A   5      -1.120   4.524  -2.755  0.00  0.00    +0.259 HD
ATOM    154  CZ  ARG A   5      -3.013   4.605  -3.523  0.00  0.00    +0.342 C 
ATOM    155  NH2 ARG A   5      -4.275   5.005  -3.285  0.00  0.00    -0.292 N 
ATOM    156 HH21 ARG A   5      -4.504   5.506  -2.403  0.00  0.00    +0.255 HD
ATOM    157 HH22 ARG A   5      -5.022   4.814  -3.983  0.00  0.00    +0.255 HD
ATOM    158  NH1 ARG A   5      -2.704   3.932  -4.636  0.00  0.00    -0.292 N 
ATOM    159 HH11 ARG A   5      -1.729   3.607  -4.793  0.00  0.00    +0.255 HD
ATOM    160 HH12 ARG A   5      -3.439   3.733  -5.345  0.00  0.00    +0.255 HD
ENDBRANCH 151 152
ENDBRANCH 150 151
ENDBRANCH 149 150
ENDBRANCH 109 149
ENDBRANCH 105 109
ENDBRANCH 104 107
BRANCH 104 161
ATOM    161  CB  SER A   6       5.070   7.304  -1.081  0.00  0.00    +0.166 C 
BRANCH 161 162
ATOM    162  OG  SER A   6       4.767   5.988  -1.457  0.00  0.00    -0.380 OA
ATOM    163  H   SER A   6       3.876   5.966  -1.888  0.00  0.00    +0.211 HD
ENDBRANCH 161 162
ENDBRANCH 104 161
ENDBRANCH 100 104
ENDBRANCH  99 102
BRANCH  99 164
ATOM    164  CB  ILE A   7       4.662  12.536  -0.826  0.00  0.00    +0.027 C 
ATOM    165  CG2 ILE A   7       4.790  14.014  -0.210  0.00  0.00    +0.002 C 
BRANCH 164 166
ATOM    166  CG1 ILE A   7       5.672  12.144  -1.889  0.00  0.00    +0.002 C 
ATOM    167  CD1 ILE A   7       6.594  13.184  -2.495  0.00  0.00    +0.000 C 
ENDBRANCH 164 166
ENDBRANCH  99 164
ENDBRANCH  95  99
ENDBRANCH  94  97
BRANCH  94 168
ATOM    168  CB  ILE A   8       0.112  11.938   1.903  0.00  0.00    +0.027 C 
ATOM    169  CG2 ILE A   8      -0.873  12.077   3.080  0.00  0.00    +0.002 C 
BRANCH 168 170
ATOM    170  CG1 ILE A   8      -0.171  13.046   0.885  0.00  0.00    +0.002 C 
ATOM    171  CD1 ILE A   8      -1.441  12.849   0.019  0.00  0.00    +0.000 C 
ENDBRANCH 168 170
ENDBRANCH  94 168
ENDBRANCH  90  94
ENDBRANCH  89  92
ENDBRANCH   1  89
TORSDOF 74
REMARK  Name = ../refined-set-2016/2wor/2wor_pocket.pdb
REMARK  116 active torsions:
REMARK  status: ('A' for Active; 'I' for Inactive)
REMARK    1  A    between atoms: _1  and  _3
REMARK    2  A    between atoms: _3  and  _4
REMARK    3  A    between atoms: _3  and  _6
REMARK    4  A    between atoms: _6  and  _7
REMARK    5  A    between atoms: _10  and  _12
REMARK    6  A    between atoms: _12  and  _13
REMARK    7  A    between atoms: _12  and  _15
REMARK    8  A    between atoms: _15  and  _16
REMARK    9  A    between atoms: _16  and  _17
REMARK   10  A    between atoms: _22  and  _24
REMARK   11  A    between atoms: _24  and  _25
REMARK   12  A    between atoms: _28  and  _30
REMARK   13  A    between atoms: _30  and  _31
REMARK   14  A    between atoms: _30  and  _33
REMARK   15  A    between atoms: _33  and  _34
REMARK   16  A    between atoms: _34  and  _35
REMARK   17  A    between atoms: _38  and  _40
REMARK   18  A    between atoms: _40  and  _41
REMARK   19  A    between atoms: _40  and  _43
REMARK   20  A    between atoms: _43  and  _44
REMARK   21  A    between atoms: _44  and  _45
REMARK   22  A    between atoms: _45  and  _46
REMARK   23  A    between atoms: _55  and  _57
REMARK   24  A    between atoms: _57  and  _58
REMARK   25  A    between atoms: _57  and  _60
REMARK   26  A    between atoms: _60  and  _61
REMARK   27  A    between atoms: _63  and  _65
REMARK   28  A    between atoms: _65  and  _66
REMARK   29  A    between atoms: _65  and  _68
REMARK   30  A    between atoms: _68  and  _69
REMARK   31  A    between atoms: _72  and  _74
REMARK   32  A    between atoms: _74  and  _75
REMARK   33  A    between atoms: _74  and  _77
REMARK   34  A    between atoms: _77  and  _78
REMARK   35  A    between atoms: _81  and  _83
REMARK   36  A    between atoms: _83  and  _84
REMARK   37  A    between atoms: _86  and  _88
REMARK   38  A    between atoms: _88  and  _89
REMARK   39  A    between atoms: _88  and  _91
REMARK   40  A    between atoms: _91  and  _92
REMARK   41  A    between atoms: _92  and  _93
REMARK   42  A    between atoms: _95  and  _97
REMARK   43  A    between atoms: _97  and  _98
REMARK   44  A    between atoms: _97  and  _100
REMARK   45  A    between atoms: _100  and  _101
REMARK   46  A    between atoms: _104  and  _106
REMARK   47  A    between atoms: _106  and  _107
REMARK   48  A    between atoms: _106  and  _109
REMARK   49  A    between atoms: _109  and  _110
REMARK   50  A    between atoms: _113  and  _115
REMARK   51  A    between atoms: _115  and  _116
REMARK   52  A    between atoms: _115  and  _118
REMARK   53  A    between atoms: _118  and  _119
REMARK   54  A    between atoms: _119  and  _120
REMARK   55  A    between atoms: _122  and  _124
REMARK   56  A    between atoms: _124  and  _125
REMARK   57  A    between atoms: _124  and  _127
REMARK   58  A    between atoms: _127  and  _128
REMARK   59  A    between atoms: _134  and  _136
REMARK   60  A    between atoms: _136  and  _137
REMARK   61  A    between atoms: _136  and  _139
REMARK   62  A    between atoms: _139  and  _140
REMARK   63  A    between atoms: _145  and  _147
REMARK   64  A    between atoms: _147  and  _148
REMARK   65  A    between atoms: _147  and  _150
REMARK   66  A    between atoms: _150  and  _151
REMARK   67  A    between atoms: _151  and  _152
REMARK   68  A    between atoms: _152  and  _153
REMARK   69  A    between atoms: _153  and  _154
REMARK   70  A    between atoms: _158  and  _160
REMARK   71  A    between atoms: _160  and  _161
REMARK   72  A    between atoms: _160  and  _163
REMARK   73  A    between atoms: _163  and  _164
REMARK   74  A    between atoms: _169  and  _170
REMARK   75  A    between atoms: _172  and  _174
REMARK   76  A    between atoms: _174  and  _175
REMARK   77  A    between atoms: _174  and  _177
REMARK   78  A    between atoms: _177  and  _178
REMARK   79  A    between atoms: _183  and  _185
REMARK   80  A    between atoms: _185  and  _186
REMARK   81  A    between atoms: _185  and  _188
REMARK   82  A    between atoms: _188  and  _189
REMARK   83  A    between atoms: _195  and  _197
REMARK   84  A    between atoms: _197  and  _198
REMARK   85  A    between atoms: _197  and  _200
REMARK   86  A    between atoms: _200  and  _201
REMARK   87  A    between atoms: _207  and  _209
REMARK   88  A    between atoms: _209  and  _210
REMARK   89  A    between atoms: _209  and  _212
REMARK   90  A    between atoms: _212  and  _213
REMARK   91  A    between atoms: _216  and  _218
REMARK   92  A    between atoms: _218  and  _219
REMARK   93  A    between atoms: _218  and  _221
REMARK   94  A    between atoms: _221  and  _222
REMARK   95  A    between atoms: _222  and  _223
REMARK   96  A    between atoms: _228  and  _230
REMARK   97  A    between atoms: _230  and  _231
REMARK   98  A    between atoms: _234  and  _236
REMARK   99  A    between atoms: _236  and  _237
REMARK  100  A    between atoms: _236  and  _239
REMARK  101  A    between atoms: _239  and  _240
REMARK  102  A    between atoms: _240  and  _241
REMARK  103  A    between atoms: _244  and  _246
REMARK  104  A    between atoms: _246  and  _247
REMARK  105  A    between atoms: _246  and  _249
REMARK  106  A    between atoms: _249  and  _250
REMARK  107  A    between atoms: _250  and  _251
REMARK  108  A    between atoms: _251  and  _252
REMARK  109  A    between atoms: _261  and  _263
REMARK  110  A    between atoms: _263  and  _264
REMARK  111  A    between atoms: _263  and  _266
REMARK  112  A    between atoms: _266  and  _267
REMARK  113  A    between atoms: _269  and  _271
REMARK  114  A    between atoms: _271  and  _272
REMARK  115  A    between atoms: _271  and  _274
REMARK  116  A    between atoms: _274  and  _275
REMARK                            x       y       z     vdW  Elec       q    Type
REMARK                         _______ _______ _______ _____ _____    ______ ____
ROOT
ATOM      1  C   ASN A   1      10.992   2.243   9.707  0.00  0.00    +0.239 C 
ATOM      2  N   PHE A   2      12.219   2.067  10.223  0.00  0.00    -0.298 N 
ATOM      3  H   PHE A   2      12.403   2.274  11.225  0.00  0.00    +0.150 HD
ATOM      4  O   ASN A   1      10.693   1.963   8.513  0.00  0.00    -0.274 OA
ENDROOT
BRANCH   1   5
ATOM      5  CA  ASN A   1       9.903   2.691  10.671  0.00  0.00    +0.154 C 
BRANCH   5   6
ATOM      6  N   ASN A   1      10.223   2.546  12.101  0.00  0.00    -0.238 NA
ATOM      7  H   ASN A   1      10.961   3.124  12.552  0.00  0.00    +0.142 HD
ENDBRANCH   5   6
BRANCH   5   8
ATOM      8  CB  ASN A   1       9.531   4.141  10.330  0.00  0.00    +0.111 C 
BRANCH   8   9
ATOM      9  CG  ASN A   1       8.242   4.545  11.063  0.00  0.00    +0.221 C 
ATOM     10  ND2 ASN A   1       8.408   5.150  12.240  0.00  0.00    -0.329 N 
ATOM     11 HD21 ASN A   1       7.579   5.417  12.809  0.00  0.00    +0.145 HD
ATOM     12 HD22 ASN A   1       9.366   5.355  12.589  0.00  0.00    +0.145 HD
ATOM     13  OD1 ASN A   1       7.131   4.276  10.597  0.00  0.00    -0.275 OA
ENDBRANCH   8   9
ENDBRANCH   5   8
ENDBRANCH   1   5
BRANCH   2  14
ATOM     14  CA  PHE A   2      13.289   1.583   9.361  0.00  0.00    +0.141 C 
BRANCH  14  15
ATOM     15  C   PHE A   2      14.061   0.393   9.982  0.00  0.00    +0.227 C 
ATOM     16  O   PHE A   2      15.321   0.336   9.880  0.00  0.00    -0.286 OA
ENDBRANCH  14  15
BRANCH  14  17
ATOM     17  CB  PHE A   2      14.275   2.724   9.009  0.00  0.00    +0.054 C 
BRANCH  17  18
ATOM     18  CG  PHE A   2      13.612   3.804   8.182  0.00  0.00    -0.020 A 
ATOM     19  CD2 PHE A   2      13.146   4.969   8.801  0.00  0.00    -0.004 A 
ATOM     20  CE2 PHE A   2      12.482   5.965   8.015  0.00  0.00    -0.000 A 
ATOM     21  CZ  PHE A   2      12.255   5.744   6.660  0.00  0.00    -0.000 A 
ATOM     22  CE1 PHE A   2      12.685   4.655   6.039  0.00  0.00    -0.000 A 
ATOM     23  CD1 PHE A   2      13.407   3.607   6.794  0.00  0.00    -0.004 A 
ENDBRANCH  17  18
ENDBRANCH  14  17
ENDBRANCH   2  14
TORSDOF 8
REMARK  Name = ../refined-set-2016/2wor/2wor_pocket.pdb
REMARK  116 active torsions:
REMARK  status: ('A' for Active; 'I' for Inactive)
REMARK    1  A    between atoms: _1  and  _3
REMARK    2  A    between atoms: _3  and  _4
REMARK    3  A    between atoms: _3  and  _6
REMARK    4  A    between atoms: _6  and  _7
REMARK    5  A    between atoms: _10  and  _12
REMARK    6  A    between atoms: _12  and  _13
REMARK    7  A    between atoms: _12  and  _15
REMARK    8  A    between atoms: _15  and  _16
REMARK    9  A    between atoms: _16  and  _17
REMARK   10  A    between atoms: _22  and  _24
REMARK   11  A    between atoms: _24  and  _25
REMARK   12  A    between atoms: _28  and  _30
REMARK   13  A    between atoms: _30  and  _31
REMARK   14  A    between atoms: _30  and  _33
REMARK   15  A    between atoms: _33  and  _34
REMARK   16  A    between atoms: _34  and  _35
REMARK   17  A    between atoms: _38  and  _40
REMARK   18  A    between atoms: _40  and  _41
REMARK   19  A    between atoms: _40  and  _43
REMARK   20  A    between atoms: _43  and  _44
REMARK   21  A    between atoms: _44  and  _45
REMARK   22  A    between atoms: _45  and  _46
REMARK   23  A    between atoms: _55  and  _57
REMARK   24  A    between atoms: _57  and  _58
REMARK   25  A    between atoms: _57  and  _60
REMARK   26  A    between atoms: _60  and  _61
REMARK   27  A    between atoms: _63  and  _65
REMARK   28  A    between atoms: _65  and  _66
REMARK   29  A    between atoms: _65  and  _68
REMARK   30  A    between atoms: _68  and  _69
REMARK   31  A    between atoms: _72  and  _74
REMARK   32  A    between atoms: _74  and  _75
REMARK   33  A    between atoms: _74  and  _77
REMARK   34  A    between atoms: _77  and  _78
REMARK   35  A    between atoms: _81  and  _83
REMARK   36  A    between atoms: _83  and  _84
REMARK   37  A    between atoms: _86  and  _88
REMARK   38  A    between atoms: _88  and  _89
REMARK   39  A    between atoms: _88  and  _91
REMARK   40  A    between atoms: _91  and  _92
REMARK   41  A    between atoms: _92  and  _93
REMARK   42  A    between atoms: _95  and  _97
REMARK   43  A    between atoms: _97  and  _98
REMARK   44  A    between atoms: _97  and  _100
REMARK   45  A    between atoms: _100  and  _101
REMARK   46  A    between atoms: _104  and  _106
REMARK   47  A    between atoms: _106  and  _107
REMARK   48  A    between atoms: _106  and  _109
REMARK   49  A    between atoms: _109  and  _110
REMARK   50  A    between atoms: _113  and  _115
REMARK   51  A    between atoms: _115  and  _116
REMARK   52  A    between atoms: _115  and  _118
REMARK   53  A    between atoms: _118  and  _119
REMARK   54  A    between atoms: _119  and  _120
REMARK   55  A    between atoms: _122  and  _124
REMARK   56  A    between atoms: _124  and  _125
REMARK   57  A    between atoms: _124  and  _127
REMARK   58  A    between atoms: _127  and  _128
REMARK   59  A    between atoms: _134  and  _136
REMARK   60  A    between atoms: _136  and  _137
REMARK   61  A    between atoms: _136  and  _139
REMARK   62  A    between atoms: _139  and  _140
REMARK   63  A    between atoms: _145  and  _147
REMARK   64  A    between atoms: _147  and  _148
REMARK   65  A    between atoms: _147  and  _150
REMARK   66  A    between atoms: _150  and  _151
REMARK   67  A    between atoms: _151  and  _152
REMARK   68  A    between atoms: _152  and  _153
REMARK   69  A    between atoms: _153  and  _154
REMARK   70  A    between atoms: _158  and  _160
REMARK   71  A    between atoms: _160  and  _161
REMARK   72  A    between atoms: _160  and  _163
REMARK   73  A    between atoms: _163  and  _164
REMARK   74  A    between atoms: _169  and  _170
REMARK   75  A    between atoms: _172  and  _174
REMARK   76  A    between atoms: _174  and  _175
REMARK   77  A    between atoms: _174  and  _177
REMARK   78  A    between atoms: _177  and  _178
REMARK   79  A    between atoms: _183  and  _185
REMARK   80  A    between atoms: _185  and  _186
REMARK   81  A    between atoms: _185  and  _188
REMARK   82  A    between atoms: _188  and  _189
REMARK   83  A    between atoms: _195  and  _197
REMARK   84  A    between atoms: _197  and  _198
REMARK   85  A    between atoms: _197  and  _200
REMARK   86  A    between atoms: _200  and  _201
REMARK   87  A    between atoms: _207  and  _209
REMARK   88  A    between atoms: _209  and  _210
REMARK   89  A    between atoms: _209  and  _212
REMARK   90  A    between atoms: _212  and  _213
REMARK   91  A    between atoms: _216  and  _218
REMARK   92  A    between atoms: _218  and  _219
REMARK   93  A    between atoms: _218  and  _221
REMARK   94  A    between atoms: _221  and  _222
REMARK   95  A    between atoms: _222  and  _223
REMARK   96  A    between atoms: _228  and  _230
REMARK   97  A    between atoms: _230  and  _231
REMARK   98  A    between atoms: _234  and  _236
REMARK   99  A    between atoms: _236  and  _237
REMARK  100  A    between atoms: _236  and  _239
REMARK  101  A    between atoms: _239  and  _240
REMARK  102  A    between atoms: _240  and  _241
REMARK  103  A    between atoms: _244  and  _246
REMARK  104  A    between atoms: _246  and  _247
REMARK  105  A    between atoms: _246  and  _249
REMARK  106  A    between atoms: _249  and  _250
REMARK  107  A    between atoms: _250  and  _251
REMARK  108  A    between atoms: _251  and  _252
REMARK  109  A    between atoms: _261  and  _263
REMARK  110  A    between atoms: _263  and  _264
REMARK  111  A    between atoms: _263  and  _266
REMARK  112  A    between atoms: _266  and  _267
REMARK  113  A    between atoms: _269  and  _271
REMARK  114  A    between atoms: _271  and  _272
REMARK  115  A    between atoms: _271  and  _274
REMARK  116  A    between atoms: _274  and  _275
REMARK                            x       y       z     vdW  Elec       q    Type
REMARK                         _______ _______ _______ _____ _____    ______ ____
ROOT
ATOM      1  CB  PHE A   1      12.537  15.206   8.888  0.00  0.00    +0.051 C 
ENDROOT
BRANCH   1   2
ATOM      2  CG  PHE A   1      11.629  14.016   8.518  0.00  0.00    -0.020 A 
ATOM      3  CD2 PHE A   1      11.741  12.779   9.181  0.00  0.00    -0.004 A 
ATOM      4  CE2 PHE A   1      10.851  11.653   8.864  0.00  0.00    -0.000 A 
ATOM      5  CZ  PHE A   1       9.844  11.842   7.843  0.00  0.00    -0.000 A 
ATOM      6  CE1 PHE A   1       9.759  13.106   7.226  0.00  0.00    -0.000 A 
ATOM      7  CD1 PHE A   1      10.668  14.153   7.527  0.00  0.00    -0.004 A 
ENDBRANCH   1   2
BRANCH   1   8
ATOM      8  CA  PHE A   1      13.984  15.048   8.377  0.00  0.00    +0.137 C 
BRANCH   8   9
ATOM      9  N   PHE A   1      14.607  16.380   8.575  0.00  0.00    -0.239 NA
ATOM     10  H   PHE A   1      14.036  17.158   8.963  0.00  0.00    +0.142 HD
ENDBRANCH   8   9
BRANCH   8  11
ATOM     11  C   PHE A   1      14.029  14.675   6.849  0.00  0.00    +0.224 C 
ATOM     12  O   PHE A   1      14.323  13.532   6.541  0.00  0.00    -0.287 OA
ENDBRANCH   8  11
ENDBRANCH   1   8
TORSDOF 4
REMARK  Name = ../refined-set-2016/2wor/2wor_pocket.pdb
REMARK  116 active torsions:
REMARK  status: ('A' for Active; 'I' for Inactive)
REMARK    1  A    between atoms: _1  and  _3
REMARK    2  A    between atoms: _3  and  _4
REMARK    3  A    between atoms: _3  and  _6
REMARK    4  A    between atoms: _6  and  _7
REMARK    5  A    between atoms: _10  and  _12
REMARK    6  A    between atoms: _12  and  _13
REMARK    7  A    between atoms: _12  and  _15
REMARK    8  A    between atoms: _15  and  _16
REMARK    9  A    between atoms: _16  and  _17
REMARK   10  A    between atoms: _22  and  _24
REMARK   11  A    between atoms: _24  and  _25
REMARK   12  A    between atoms: _28  and  _30
REMARK   13  A    between atoms: _30  and  _31
REMARK   14  A    between atoms: _30  and  _33
REMARK   15  A    between atoms: _33  and  _34
REMARK   16  A    between atoms: _34  and  _35
REMARK   17  A    between atoms: _38  and  _40
REMARK   18  A    between atoms: _40  and  _41
REMARK   19  A    between atoms: _40  and  _43
REMARK   20  A    between atoms: _43  and  _44
REMARK   21  A    between atoms: _44  and  _45
REMARK   22  A    between atoms: _45  and  _46
REMARK   23  A    between atoms: _55  and  _57
REMARK   24  A    between atoms: _57  and  _58
REMARK   25  A    between atoms: _57  and  _60
REMARK   26  A    between atoms: _60  and  _61
REMARK   27  A    between atoms: _63  and  _65
REMARK   28  A    between atoms: _65  and  _66
REMARK   29  A    between atoms: _65  and  _68
REMARK   30  A    between atoms: _68  and  _69
REMARK   31  A    between atoms: _72  and  _74
REMARK   32  A    between atoms: _74  and  _75
REMARK   33  A    between atoms: _74  and  _77
REMARK   34  A    between atoms: _77  and  _78
REMARK   35  A    between atoms: _81  and  _83
REMARK   36  A    between atoms: _83  and  _84
REMARK   37  A    between atoms: _86  and  _88
REMARK   38  A    between atoms: _88  and  _89
REMARK   39  A    between atoms: _88  and  _91
REMARK   40  A    between atoms: _91  and  _92
REMARK   41  A    between atoms: _92  and  _93
REMARK   42  A    between atoms: _95  and  _97
REMARK   43  A    between atoms: _97  and  _98
REMARK   44  A    between atoms: _97  and  _100
REMARK   45  A    between atoms: _100  and  _101
REMARK   46  A    between atoms: _104  and  _106
REMARK   47  A    between atoms: _106  and  _107
REMARK   48  A    between atoms: _106  and  _109
REMARK   49  A    between atoms: _109  and  _110
REMARK   50  A    between atoms: _113  and  _115
REMARK   51  A    between atoms: _115  and  _116
REMARK   52  A    between atoms: _115  and  _118
REMARK   53  A    between atoms: _118  and  _119
REMARK   54  A    between atoms: _119  and  _120
REMARK   55  A    between atoms: _122  and  _124
REMARK   56  A    between atoms: _124  and  _125
REMARK   57  A    between atoms: _124  and  _127
REMARK   58  A    between atoms: _127  and  _128
REMARK   59  A    between atoms: _134  and  _136
REMARK   60  A    between atoms: _136  and  _137
REMARK   61  A    between atoms: _136  and  _139
REMARK   62  A    between atoms: _139  and  _140
REMARK   63  A    between atoms: _145  and  _147
REMARK   64  A    between atoms: _147  and  _148
REMARK   65  A    between atoms: _147  and  _150
REMARK   66  A    between atoms: _150  and  _151
REMARK   67  A    between atoms: _151  and  _152
REMARK   68  A    between atoms: _152  and  _153
REMARK   69  A    between atoms: _153  and  _154
REMARK   70  A    between atoms: _158  and  _160
REMARK   71  A    between atoms: _160  and  _161
REMARK   72  A    between atoms: _160  and  _163
REMARK   73  A    between atoms: _163  and  _164
REMARK   74  A    between atoms: _169  and  _170
REMARK   75  A    between atoms: _172  and  _174
REMARK   76  A    between atoms: _174  and  _175
REMARK   77  A    between atoms: _174  and  _177
REMARK   78  A    between atoms: _177  and  _178
REMARK   79  A    between atoms: _183  and  _185
REMARK   80  A    between atoms: _185  and  _186
REMARK   81  A    between atoms: _185  and  _188
REMARK   82  A    between atoms: _188  and  _189
REMARK   83  A    between atoms: _195  and  _197
REMARK   84  A    between atoms: _197  and  _198
REMARK   85  A    between atoms: _197  and  _200
REMARK   86  A    between atoms: _200  and  _201
REMARK   87  A    between atoms: _207  and  _209
REMARK   88  A    between atoms: _209  and  _210
REMARK   89  A    between atoms: _209  and  _212
REMARK   90  A    between atoms: _212  and  _213
REMARK   91  A    between atoms: _216  and  _218
REMARK   92  A    between atoms: _218  and  _219
REMARK   93  A    between atoms: _218  and  _221
REMARK   94  A    between atoms: _221  and  _222
REMARK   95  A    between atoms: _222  and  _223
REMARK   96  A    between atoms: _228  and  _230
REMARK   97  A    between atoms: _230  and  _231
REMARK   98  A    between atoms: _234  and  _236
REMARK   99  A    between atoms: _236  and  _237
REMARK  100  A    between atoms: _236  and  _239
REMARK  101  A    between atoms: _239  and  _240
REMARK  102  A    between atoms: _240  and  _241
REMARK  103  A    between atoms: _244  and  _246
REMARK  104  A    between atoms: _246  and  _247
REMARK  105  A    between atoms: _246  and  _249
REMARK  106  A    between atoms: _249  and  _250
REMARK  107  A    between atoms: _250  and  _251
REMARK  108  A    between atoms: _251  and  _252
REMARK  109  A    between atoms: _261  and  _263
REMARK  110  A    between atoms: _263  and  _264
REMARK  111  A    between atoms: _263  and  _266
REMARK  112  A    between atoms: _266  and  _267
REMARK  113  A    between atoms: _269  and  _271
REMARK  114  A    between atoms: _271  and  _272
REMARK  115  A    between atoms: _271  and  _274
REMARK  116  A    between atoms: _274  and  _275
REMARK                            x       y       z     vdW  Elec       q    Type
REMARK                         _______ _______ _______ _____ _____    ______ ____
ROOT
ATOM      1  C   GLU A   4      10.227   1.066   2.330  0.00  0.00    +0.241 C 
ATOM      2  N   ARG A   5       8.972   0.540   2.277  0.00  0.00    -0.297 N 
ATOM      3  H   ARG A   5       8.456   0.316   3.152  0.00  0.00    +0.150 HD
ATOM      4  O   GLU A   4      10.914   1.355   1.346  0.00  0.00    -0.273 OA
ENDROOT
BRANCH   2   5
ATOM      5  CA  ARG A   5       8.347   0.289   0.940  0.00  0.00    +0.149 C 
BRANCH   5   6
ATOM      6  C   ARG A   5       8.187   1.561   0.139  0.00  0.00    +0.241 C 
ATOM      7  N   SER A   6       7.921   2.701   0.809  0.00  0.00    -0.295 N 
ATOM      8  H   SER A   6       7.817   2.677   1.843  0.00  0.00    +0.150 HD
ATOM      9  O   ARG A   5       8.385   1.541  -1.103  0.00  0.00    -0.273 OA
BRANCH   7  10
ATOM     10  CA  SER A   6       7.776   3.983   0.090  0.00  0.00    +0.178 C 
BRANCH  10  11
ATOM     11  C   SER A   6       9.081   4.405  -0.492  0.00  0.00    +0.243 C 
ATOM     12  N   ILE A   7      10.167   4.292   0.279  0.00  0.00    -0.298 N 
ATOM     13  H   ILE A   7      10.091   3.943   1.256  0.00  0.00    +0.150 HD
ATOM     14  O   SER A   6       9.112   4.840  -1.637  0.00  0.00    -0.273 OA
BRANCH  12  15
ATOM     15  CA  ILE A   7      11.498   4.679  -0.295  0.00  0.00    +0.137 C 
BRANCH  15  16
ATOM     16  C   ILE A   7      11.899   3.788  -1.453  0.00  0.00    +0.227 C 
ATOM     17  O   ILE A   7      12.324   4.301  -2.543  0.00  0.00    -0.286 OA
ENDBRANCH  15  16
BRANCH  15  18
ATOM     18  CB  ILE A   7      12.536   4.662   0.826  0.00  0.00    +0.026 C 
ATOM     19  CG2 ILE A   7      14.014   4.790   0.210  0.00  0.00    +0.002 C 
BRANCH  18  20
ATOM     20  CG1 ILE A   7      12.144   5.672   1.889  0.00  0.00    +0.002 C 
ATOM     21  CD1 ILE A   7      13.184   6.594   2.495  0.00  0.00    +0.000 C 
ENDBRANCH  18  20
ENDBRANCH  15  18
ENDBRANCH  12  15
ENDBRANCH  10  11
BRANCH  10  22
ATOM     22  CB  SER A   6       7.304   5.070   1.081  0.00  0.00    +0.166 C 
BRANCH  22  23
ATOM     23  OG  SER A   6       5.988   4.767   1.457  0.00  0.00    -0.380 OA
ATOM     24  H   SER A   6       5.966   3.876   1.888  0.00  0.00    +0.211 HD
ENDBRANCH  22  23
ENDBRANCH  10  22
ENDBRANCH   7  10
ENDBRANCH   5   6
BRANCH   5  25
ATOM     25  CB  ARG A   5       6.980  -0.388   1.141  0.00  0.00    +0.033 C 
BRANCH  25  26
ATOM     26  CG  ARG A   5       7.112  -1.881   1.559  0.00  0.00    +0.045 C 
BRANCH  26  27
ATOM     27  CD  ARG A   5       5.623  -2.389   1.402  0.00  0.00    +0.174 C 
BRANCH  27  28
ATOM     28  NE  ARG A   5       4.869  -2.090   2.606  0.00  0.00    -0.265 N 
ATOM     29  CZ  ARG A   5       4.605  -3.013   3.523  0.00  0.00    +0.342 C 
ATOM     30  NH2 ARG A   5       3.932  -2.704   4.636  0.00  0.00    -0.292 N 
ATOM     31 HH21 ARG A   5       3.733  -3.439   5.345  0.00  0.00    +0.255 HD
ATOM     32 HH22 ARG A   5       3.607  -1.729   4.793  0.00  0.00    +0.255 HD
ATOM     33  NH1 ARG A   5       5.005  -4.275   3.285  0.00  0.00    -0.292 N 
ATOM     34 HH11 ARG A   5       4.814  -5.022   3.983  0.00  0.00    +0.255 HD
ATOM     35 HH12 ARG A   5       5.506  -4.504   2.403  0.00  0.00    +0.255 HD
ATOM     36  HE  ARG A   5       4.524  -1.120   2.755  0.00  0.00    +0.259 HD
ENDBRANCH  27  28
ENDBRANCH  26  27
ENDBRANCH  25  26
ENDBRANCH   5  25
ENDBRANCH   2   5
BRANCH   1  37
ATOM     37  CA  GLU A   4      10.809   1.331   3.733  0.00  0.00    +0.149 C 
BRANCH  37  39
ATOM     38  C   ALA A   3       9.295   3.145   4.298  0.00  0.00    +0.241 C 
ATOM     39  N   GLU A   4       9.736   1.906   4.570  0.00  0.00    -0.297 N 
ATOM     40  H   GLU A   4       9.329   1.361   5.356  0.00  0.00    +0.150 HD
ATOM     41  O   ALA A   3       9.653   3.773   3.303  0.00  0.00    -0.273 OA
BRANCH  38  42
ATOM     42  CA  ALA A   3       8.191   3.702   5.164  0.00  0.00    +0.149 C 
ATOM     43  CB  ALA A   3       8.799   4.282   6.459  0.00  0.00    +0.031 C 
BRANCH  42  45
ATOM     44  C   GLN A   2       6.369   2.224   4.516  0.00  0.00    +0.241 C 
ATOM     45  N   ALA A   3       7.142   2.683   5.507  0.00  0.00    -0.297 N 
ATOM     46  H   ALA A   3       7.020   2.345   6.483  0.00  0.00    +0.150 HD
ATOM     47  O   GLN A   2       6.470   2.594   3.353  0.00  0.00    -0.273 OA
BRANCH  44  48
ATOM     48  CA  GLN A   2       5.314   1.197   4.889  0.00  0.00    +0.149 C 
BRANCH  48  50
ATOM     49  C   THR A   1       6.934  -0.492   5.576  0.00  0.00    +0.241 C 
ATOM     50  N   GLN A   2       5.877   0.262   5.910  0.00  0.00    -0.297 N 
ATOM     51  H   GLN A   2       5.458   0.198   6.860  0.00  0.00    +0.150 HD
ATOM     52  O   THR A   1       7.501  -0.437   4.462  0.00  0.00    -0.274 OA
BRANCH  49  53
ATOM     53  CA  THR A   1       7.514  -1.404   6.661  0.00  0.00    +0.172 C 
BRANCH  53  54
ATOM     54  N   THR A   1       8.572  -2.248   6.167  0.00  0.00    -0.236 NA
ATOM     55  H   THR A   1       9.565  -2.036   6.392  0.00  0.00    +0.142 HD
ENDBRANCH  53  54
BRANCH  53  56
ATOM     56  CB  THR A   1       8.080  -0.399   7.720  0.00  0.00    +0.135 C 
ATOM     57  CG2 THR A   1       8.748  -1.202   8.881  0.00  0.00    +0.034 C 
BRANCH  56  58
ATOM     58  OG1 THR A   1       9.090   0.410   7.098  0.00  0.00    -0.383 OA
ATOM     59  HG1 THR A   1       9.454   1.049   7.761  0.00  0.00    +0.210 HD
ENDBRANCH  56  58
ENDBRANCH  53  56
ENDBRANCH  49  53
ENDBRANCH  48  50
BRANCH  48  60
ATOM     60  CB  GLN A   2       4.046   1.955   5.297  0.00  0.00    +0.039 C 
BRANCH  60  61
ATOM     61  CG  GLN A   2       2.953   0.994   5.532  0.00  0.00    +0.087 C 
BRANCH  61  62
ATOM     62  CD  GLN A   2       1.731   1.667   6.109  0.00  0.00    +0.219 C 
ATOM     63  OE1 GLN A   2       1.706   2.024   7.346  0.00  0.00    -0.275 OA
ATOM     64  NE2 GLN A   2       0.688   1.805   5.247  0.00  0.00    -0.329 N 
ATOM     65 HE21 GLN A   2      -0.206   2.223   5.575  0.00  0.00    +0.145 HD
ATOM     66 HE22 GLN A   2       0.784   1.492   4.260  0.00  0.00    +0.145 HD
ENDBRANCH  61  62
ENDBRANCH  60  61
ENDBRANCH  48  60
ENDBRANCH  44  48
ENDBRANCH  42  45
ENDBRANCH  38  42
ENDBRANCH  37  39
BRANCH  37  67
ATOM     67  CB  GLU A   4      11.218  -0.025   4.343  0.00  0.00    +0.041 C 
BRANCH  67  68
ATOM     68  CG  GLU A   4      12.073   0.343   5.635  0.00  0.00    +0.116 C 
BRANCH  68  69
ATOM     69  CD  GLU A   4      12.240  -0.961   6.531  0.00  0.00    +0.365 C 
ATOM     70  OE2 GLU A   4      13.255  -0.949   7.305  0.00  0.00    -0.246 OA
ATOM     71  OE1 GLU A   4      11.418  -1.949   6.442  0.00  0.00    -0.246 OA
ENDBRANCH  68  69
ENDBRANCH  67  68
ENDBRANCH  37  67
ENDBRANCH   1  37
TORSDOF 30
REMARK  Name = ../refined-set-2016/2wor/2wor_pocket.pdb
REMARK  116 active torsions:
REMARK  status: ('A' for Active; 'I' for Inactive)
REMARK    1  A    between atoms: _1  and  _3
REMARK    2  A    between atoms: _3  and  _4
REMARK    3  A    between atoms: _3  and  _6
REMARK    4  A    between atoms: _6  and  _7
REMARK    5  A    between atoms: _10  and  _12
REMARK    6  A    between atoms: _12  and  _13
REMARK    7  A    between atoms: _12  and  _15
REMARK    8  A    between atoms: _15  and  _16
REMARK    9  A    between atoms: _16  and  _17
REMARK   10  A    between atoms: _22  and  _24
REMARK   11  A    between atoms: _24  and  _25
REMARK   12  A    between atoms: _28  and  _30
REMARK   13  A    between atoms: _30  and  _31
REMARK   14  A    between atoms: _30  and  _33
REMARK   15  A    between atoms: _33  and  _34
REMARK   16  A    between atoms: _34  and  _35
REMARK   17  A    between atoms: _38  and  _40
REMARK   18  A    between atoms: _40  and  _41
REMARK   19  A    between atoms: _40  and  _43
REMARK   20  A    between atoms: _43  and  _44
REMARK   21  A    between atoms: _44  and  _45
REMARK   22  A    between atoms: _45  and  _46
REMARK   23  A    between atoms: _55  and  _57
REMARK   24  A    between atoms: _57  and  _58
REMARK   25  A    between atoms: _57  and  _60
REMARK   26  A    between atoms: _60  and  _61
REMARK   27  A    between atoms: _63  and  _65
REMARK   28  A    between atoms: _65  and  _66
REMARK   29  A    between atoms: _65  and  _68
REMARK   30  A    between atoms: _68  and  _69
REMARK   31  A    between atoms: _72  and  _74
REMARK   32  A    between atoms: _74  and  _75
REMARK   33  A    between atoms: _74  and  _77
REMARK   34  A    between atoms: _77  and  _78
REMARK   35  A    between atoms: _81  and  _83
REMARK   36  A    between atoms: _83  and  _84
REMARK   37  A    between atoms: _86  and  _88
REMARK   38  A    between atoms: _88  and  _89
REMARK   39  A    between atoms: _88  and  _91
REMARK   40  A    between atoms: _91  and  _92
REMARK   41  A    between atoms: _92  and  _93
REMARK   42  A    between atoms: _95  and  _97
REMARK   43  A    between atoms: _97  and  _98
REMARK   44  A    between atoms: _97  and  _100
REMARK   45  A    between atoms: _100  and  _101
REMARK   46  A    between atoms: _104  and  _106
REMARK   47  A    between atoms: _106  and  _107
REMARK   48  A    between atoms: _106  and  _109
REMARK   49  A    between atoms: _109  and  _110
REMARK   50  A    between atoms: _113  and  _115
REMARK   51  A    between atoms: _115  and  _116
REMARK   52  A    between atoms: _115  and  _118
REMARK   53  A    between atoms: _118  and  _119
REMARK   54  A    between atoms: _119  and  _120
REMARK   55  A    between atoms: _122  and  _124
REMARK   56  A    between atoms: _124  and  _125
REMARK   57  A    between atoms: _124  and  _127
REMARK   58  A    between atoms: _127  and  _128
REMARK   59  A    between atoms: _134  and  _136
REMARK   60  A    between atoms: _136  and  _137
REMARK   61  A    between atoms: _136  and  _139
REMARK   62  A    between atoms: _139  and  _140
REMARK   63  A    between atoms: _145  and  _147
REMARK   64  A    between atoms: _147  and  _148
REMARK   65  A    between atoms: _147  and  _150
REMARK   66  A    between atoms: _150  and  _151
REMARK   67  A    between atoms: _151  and  _152
REMARK   68  A    between atoms: _152  and  _153
REMARK   69  A    between atoms: _153  and  _154
REMARK   70  A    between atoms: _158  and  _160
REMARK   71  A    between atoms: _160  and  _161
REMARK   72  A    between atoms: _160  and  _163
REMARK   73  A    between atoms: _163  and  _164
REMARK   74  A    between atoms: _169  and  _170
REMARK   75  A    between atoms: _172  and  _174
REMARK   76  A    between atoms: _174  and  _175
REMARK   77  A    between atoms: _174  and  _177
REMARK   78  A    between atoms: _177  and  _178
REMARK   79  A    between atoms: _183  and  _185
REMARK   80  A    between atoms: _185  and  _186
REMARK   81  A    between atoms: _185  and  _188
REMARK   82  A    between atoms: _188  and  _189
REMARK   83  A    between atoms: _195  and  _197
REMARK   84  A    between atoms: _197  and  _198
REMARK   85  A    between atoms: _197  and  _200
REMARK   86  A    between atoms: _200  and  _201
REMARK   87  A    between atoms: _207  and  _209
REMARK   88  A    between atoms: _209  and  _210
REMARK   89  A    between atoms: _209  and  _212
REMARK   90  A    between atoms: _212  and  _213
REMARK   91  A    between atoms: _216  and  _218
REMARK   92  A    between atoms: _218  and  _219
REMARK   93  A    between atoms: _218  and  _221
REMARK   94  A    between atoms: _221  and  _222
REMARK   95  A    between atoms: _222  and  _223
REMARK   96  A    between atoms: _228  and  _230
REMARK   97  A    between atoms: _230  and  _231
REMARK   98  A    between atoms: _234  and  _236
REMARK   99  A    between atoms: _236  and  _237
REMARK  100  A    between atoms: _236  and  _239
REMARK  101  A    between atoms: _239  and  _240
REMARK  102  A    between atoms: _240  and  _241
REMARK  103  A    between atoms: _244  and  _246
REMARK  104  A    between atoms: _246  and  _247
REMARK  105  A    between atoms: _246  and  _249
REMARK  106  A    between atoms: _249  and  _250
REMARK  107  A    between atoms: _250  and  _251
REMARK  108  A    between atoms: _251  and  _252
REMARK  109  A    between atoms: _261  and  _263
REMARK  110  A    between atoms: _263  and  _264
REMARK  111  A    between atoms: _263  and  _266
REMARK  112  A    between atoms: _266  and  _267
REMARK  113  A    between atoms: _269  and  _271
REMARK  114  A    between atoms: _271  and  _272
REMARK  115  A    between atoms: _271  and  _274
REMARK  116  A    between atoms: _274  and  _275
REMARK                            x       y       z     vdW  Elec       q    Type
REMARK                         _______ _______ _______ _____ _____    ______ ____
ROOT
ATOM      1  O   HOH     1       1.932   4.015  -1.289  0.00  0.00    +0.000 OA
ENDROOT
TORSDOF 0
REMARK  Name = ../refined-set-2016/2wor/2wor_pocket.pdb
REMARK  116 active torsions:
REMARK  status: ('A' for Active; 'I' for Inactive)
REMARK    1  A    between atoms: _1  and  _3
REMARK    2  A    between atoms: _3  and  _4
REMARK    3  A    between atoms: _3  and  _6
REMARK    4  A    between atoms: _6  and  _7
REMARK    5  A    between atoms: _10  and  _12
REMARK    6  A    between atoms: _12  and  _13
REMARK    7  A    between atoms: _12  and  _15
REMARK    8  A    between atoms: _15  and  _16
REMARK    9  A    between atoms: _16  and  _17
REMARK   10  A    between atoms: _22  and  _24
REMARK   11  A    between atoms: _24  and  _25
REMARK   12  A    between atoms: _28  and  _30
REMARK   13  A    between atoms: _30  and  _31
REMARK   14  A    between atoms: _30  and  _33
REMARK   15  A    between atoms: _33  and  _34
REMARK   16  A    between atoms: _34  and  _35
REMARK   17  A    between atoms: _38  and  _40
REMARK   18  A    between atoms: _40  and  _41
REMARK   19  A    between atoms: _40  and  _43
REMARK   20  A    between atoms: _43  and  _44
REMARK   21  A    between atoms: _44  and  _45
REMARK   22  A    between atoms: _45  and  _46
REMARK   23  A    between atoms: _55  and  _57
REMARK   24  A    between atoms: _57  and  _58
REMARK   25  A    between atoms: _57  and  _60
REMARK   26  A    between atoms: _60  and  _61
REMARK   27  A    between atoms: _63  and  _65
REMARK   28  A    between atoms: _65  and  _66
REMARK   29  A    between atoms: _65  and  _68
REMARK   30  A    between atoms: _68  and  _69
REMARK   31  A    between atoms: _72  and  _74
REMARK   32  A    between atoms: _74  and  _75
REMARK   33  A    between atoms: _74  and  _77
REMARK   34  A    between atoms: _77  and  _78
REMARK   35  A    between atoms: _81  and  _83
REMARK   36  A    between atoms: _83  and  _84
REMARK   37  A    between atoms: _86  and  _88
REMARK   38  A    between atoms: _88  and  _89
REMARK   39  A    between atoms: _88  and  _91
REMARK   40  A    between atoms: _91  and  _92
REMARK   41  A    between atoms: _92  and  _93
REMARK   42  A    between atoms: _95  and  _97
REMARK   43  A    between atoms: _97  and  _98
REMARK   44  A    between atoms: _97  and  _100
REMARK   45  A    between atoms: _100  and  _101
REMARK   46  A    between atoms: _104  and  _106
REMARK   47  A    between atoms: _106  and  _107
REMARK   48  A    between atoms: _106  and  _109
REMARK   49  A    between atoms: _109  and  _110
REMARK   50  A    between atoms: _113  and  _115
REMARK   51  A    between atoms: _115  and  _116
REMARK   52  A    between atoms: _115  and  _118
REMARK   53  A    between atoms: _118  and  _119
REMARK   54  A    between atoms: _119  and  _120
REMARK   55  A    between atoms: _122  and  _124
REMARK   56  A    between atoms: _124  and  _125
REMARK   57  A    between atoms: _124  and  _127
REMARK   58  A    between atoms: _127  and  _128
REMARK   59  A    between atoms: _134  and  _136
REMARK   60  A    between atoms: _136  and  _137
REMARK   61  A    between atoms: _136  and  _139
REMARK   62  A    between atoms: _139  and  _140
REMARK   63  A    between atoms: _145  and  _147
REMARK   64  A    between atoms: _147  and  _148
REMARK   65  A    between atoms: _147  and  _150
REMARK   66  A    between atoms: _150  and  _151
REMARK   67  A    between atoms: _151  and  _152
REMARK   68  A    between atoms: _152  and  _153
REMARK   69  A    between atoms: _153  and  _154
REMARK   70  A    between atoms: _158  and  _160
REMARK   71  A    between atoms: _160  and  _161
REMARK   72  A    between atoms: _160  and  _163
REMARK   73  A    between atoms: _163  and  _164
REMARK   74  A    between atoms: _169  and  _170
REMARK   75  A    between atoms: _172  and  _174
REMARK   76  A    between atoms: _174  and  _175
REMARK   77  A    between atoms: _174  and  _177
REMARK   78  A    between atoms: _177  and  _178
REMARK   79  A    between atoms: _183  and  _185
REMARK   80  A    between atoms: _185  and  _186
REMARK   81  A    between atoms: _185  and  _188
REMARK   82  A    between atoms: _188  and  _189
REMARK   83  A    between atoms: _195  and  _197
REMARK   84  A    between atoms: _197  and  _198
REMARK   85  A    between atoms: _197  and  _200
REMARK   86  A    between atoms: _200  and  _201
REMARK   87  A    between atoms: _207  and  _209
REMARK   88  A    between atoms: _209  and  _210
REMARK   89  A    between atoms: _209  and  _212
REMARK   90  A    between atoms: _212  and  _213
REMARK   91  A    between atoms: _216  and  _218
REMARK   92  A    between atoms: _218  and  _219
REMARK   93  A    between atoms: _218  and  _221
REMARK   94  A    between atoms: _221  and  _222
REMARK   95  A    between atoms: _222  and  _223
REMARK   96  A    between atoms: _228  and  _230
REMARK   97  A    between atoms: _230  and  _231
REMARK   98  A    between atoms: _234  and  _236
REMARK   99  A    between atoms: _236  and  _237
REMARK  100  A    between atoms: _236  and  _239
REMARK  101  A    between atoms: _239  and  _240
REMARK  102  A    between atoms: _240  and  _241
REMARK  103  A    between atoms: _244  and  _246
REMARK  104  A    between atoms: _246  and  _247
REMARK  105  A    between atoms: _246  and  _249
REMARK  106  A    between atoms: _249  and  _250
REMARK  107  A    between atoms: _250  and  _251
REMARK  108  A    between atoms: _251  and  _252
REMARK  109  A    between atoms: _261  and  _263
REMARK  110  A    between atoms: _263  and  _264
REMARK  111  A    between atoms: _263  and  _266
REMARK  112  A    between atoms: _266  and  _267
REMARK  113  A    between atoms: _269  and  _271
REMARK  114  A    between atoms: _271  and  _272
REMARK  115  A    between atoms: _271  and  _274
REMARK  116  A    between atoms: _274  and  _275
REMARK                            x       y       z     vdW  Elec       q    Type
REMARK                         _______ _______ _______ _____ _____    ______ ____
ROOT
ATOM      1  O   HOH     1      -0.942   8.431   2.429  0.00  0.00    +0.000 OA
ENDROOT
TORSDOF 0
REMARK  Name = ../refined-set-2016/2wor/2wor_pocket.pdb
REMARK  116 active torsions:
REMARK  status: ('A' for Active; 'I' for Inactive)
REMARK    1  A    between atoms: _1  and  _3
REMARK    2  A    between atoms: _3  and  _4
REMARK    3  A    between atoms: _3  and  _6
REMARK    4  A    between atoms: _6  and  _7
REMARK    5  A    between atoms: _10  and  _12
REMARK    6  A    between atoms: _12  and  _13
REMARK    7  A    between atoms: _12  and  _15
REMARK    8  A    between atoms: _15  and  _16
REMARK    9  A    between atoms: _16  and  _17
REMARK   10  A    between atoms: _22  and  _24
REMARK   11  A    between atoms: _24  and  _25
REMARK   12  A    between atoms: _28  and  _30
REMARK   13  A    between atoms: _30  and  _31
REMARK   14  A    between atoms: _30  and  _33
REMARK   15  A    between atoms: _33  and  _34
REMARK   16  A    between atoms: _34  and  _35
REMARK   17  A    between atoms: _38  and  _40
REMARK   18  A    between atoms: _40  and  _41
REMARK   19  A    between atoms: _40  and  _43
REMARK   20  A    between atoms: _43  and  _44
REMARK   21  A    between atoms: _44  and  _45
REMARK   22  A    between atoms: _45  and  _46
REMARK   23  A    between atoms: _55  and  _57
REMARK   24  A    between atoms: _57  and  _58
REMARK   25  A    between atoms: _57  and  _60
REMARK   26  A    between atoms: _60  and  _61
REMARK   27  A    between atoms: _63  and  _65
REMARK   28  A    between atoms: _65  and  _66
REMARK   29  A    between atoms: _65  and  _68
REMARK   30  A    between atoms: _68  and  _69
REMARK   31  A    between atoms: _72  and  _74
REMARK   32  A    between atoms: _74  and  _75
REMARK   33  A    between atoms: _74  and  _77
REMARK   34  A    between atoms: _77  and  _78
REMARK   35  A    between atoms: _81  and  _83
REMARK   36  A    between atoms: _83  and  _84
REMARK   37  A    between atoms: _86  and  _88
REMARK   38  A    between atoms: _88  and  _89
REMARK   39  A    between atoms: _88  and  _91
REMARK   40  A    between atoms: _91  and  _92
REMARK   41  A    between atoms: _92  and  _93
REMARK   42  A    between atoms: _95  and  _97
REMARK   43  A    between atoms: _97  and  _98
REMARK   44  A    between atoms: _97  and  _100
REMARK   45  A    between atoms: _100  and  _101
REMARK   46  A    between atoms: _104  and  _106
REMARK   47  A    between atoms: _106  and  _107
REMARK   48  A    between atoms: _106  and  _109
REMARK   49  A    between atoms: _109  and  _110
REMARK   50  A    between atoms: _113  and  _115
REMARK   51  A    between atoms: _115  and  _116
REMARK   52  A    between atoms: _115  and  _118
REMARK   53  A    between atoms: _118  and  _119
REMARK   54  A    between atoms: _119  and  _120
REMARK   55  A    between atoms: _122  and  _124
REMARK   56  A    between atoms: _124  and  _125
REMARK   57  A    between atoms: _124  and  _127
REMARK   58  A    between atoms: _127  and  _128
REMARK   59  A    between atoms: _134  and  _136
REMARK   60  A    between atoms: _136  and  _137
REMARK   61  A    between atoms: _136  and  _139
REMARK   62  A    between atoms: _139  and  _140
REMARK   63  A    between atoms: _145  and  _147
REMARK   64  A    between atoms: _147  and  _148
REMARK   65  A    between atoms: _147  and  _150
REMARK   66  A    between atoms: _150  and  _151
REMARK   67  A    between atoms: _151  and  _152
REMARK   68  A    between atoms: _152  and  _153
REMARK   69  A    between atoms: _153  and  _154
REMARK   70  A    between atoms: _158  and  _160
REMARK   71  A    between atoms: _160  and  _161
REMARK   72  A    between atoms: _160  and  _163
REMARK   73  A    between atoms: _163  and  _164
REMARK   74  A    between atoms: _169  and  _170
REMARK   75  A    between atoms: _172  and  _174
REMARK   76  A    between atoms: _174  and  _175
REMARK   77  A    between atoms: _174  and  _177
REMARK   78  A    between atoms: _177  and  _178
REMARK   79  A    between atoms: _183  and  _185
REMARK   80  A    between atoms: _185  and  _186
REMARK   81  A    between atoms: _185  and  _188
REMARK   82  A    between atoms: _188  and  _189
REMARK   83  A    between atoms: _195  and  _197
REMARK   84  A    between atoms: _197  and  _198
REMARK   85  A    between atoms: _197  and  _200
REMARK   86  A    between atoms: _200  and  _201
REMARK   87  A    between atoms: _207  and  _209
REMARK   88  A    between atoms: _209  and  _210
REMARK   89  A    between atoms: _209  and  _212
REMARK   90  A    between atoms: _212  and  _213
REMARK   91  A    between atoms: _216  and  _218
REMARK   92  A    between atoms: _218  and  _219
REMARK   93  A    between atoms: _218  and  _221
REMARK   94  A    between atoms: _221  and  _222
REMARK   95  A    between atoms: _222  and  _223
REMARK   96  A    between atoms: _228  and  _230
REMARK   97  A    between atoms: _230  and  _231
REMARK   98  A    between atoms: _234  and  _236
REMARK   99  A    between atoms: _236  and  _237
REMARK  100  A    between atoms: _236  and  _239
REMARK  101  A    between atoms: _239  and  _240
REMARK  102  A    between atoms: _240  and  _241
REMARK  103  A    between atoms: _244  and  _246
REMARK  104  A    between atoms: _246  and  _247
REMARK  105  A    between atoms: _246  and  _249
REMARK  106  A    between atoms: _249  and  _250
REMARK  107  A    between atoms: _250  and  _251
REMARK  108  A    between atoms: _251  and  _252
REMARK  109  A    between atoms: _261  and  _263
REMARK  110  A    between atoms: _263  and  _264
REMARK  111  A    between atoms: _263  and  _266
REMARK  112  A    between atoms: _266  and  _267
REMARK  113  A    between atoms: _269  and  _271
REMARK  114  A    between atoms: _271  and  _272
REMARK  115  A    between atoms: _271  and  _274
REMARK  116  A    between atoms: _274  and  _275
REMARK                            x       y       z     vdW  Elec       q    Type
REMARK                         _______ _______ _______ _____ _____    ______ ____
ROOT
ATOM      1  O   HOH     1       3.333   3.528  -0.048  0.00  0.00    +0.000 OA
ENDROOT
TORSDOF 0
REMARK  Name = ../refined-set-2016/2wor/2wor_pocket.pdb
REMARK  116 active torsions:
REMARK  status: ('A' for Active; 'I' for Inactive)
REMARK    1  A    between atoms: _1  and  _3
REMARK    2  A    between atoms: _3  and  _4
REMARK    3  A    between atoms: _3  and  _6
REMARK    4  A    between atoms: _6  and  _7
REMARK    5  A    between atoms: _10  and  _12
REMARK    6  A    between atoms: _12  and  _13
REMARK    7  A    between atoms: _12  and  _15
REMARK    8  A    between atoms: _15  and  _16
REMARK    9  A    between atoms: _16  and  _17
REMARK   10  A    between atoms: _22  and  _24
REMARK   11  A    between atoms: _24  and  _25
REMARK   12  A    between atoms: _28  and  _30
REMARK   13  A    between atoms: _30  and  _31
REMARK   14  A    between atoms: _30  and  _33
REMARK   15  A    between atoms: _33  and  _34
REMARK   16  A    between atoms: _34  and  _35
REMARK   17  A    between atoms: _38  and  _40
REMARK   18  A    between atoms: _40  and  _41
REMARK   19  A    between atoms: _40  and  _43
REMARK   20  A    between atoms: _43  and  _44
REMARK   21  A    between atoms: _44  and  _45
REMARK   22  A    between atoms: _45  and  _46
REMARK   23  A    between atoms: _55  and  _57
REMARK   24  A    between atoms: _57  and  _58
REMARK   25  A    between atoms: _57  and  _60
REMARK   26  A    between atoms: _60  and  _61
REMARK   27  A    between atoms: _63  and  _65
REMARK   28  A    between atoms: _65  and  _66
REMARK   29  A    between atoms: _65  and  _68
REMARK   30  A    between atoms: _68  and  _69
REMARK   31  A    between atoms: _72  and  _74
REMARK   32  A    between atoms: _74  and  _75
REMARK   33  A    between atoms: _74  and  _77
REMARK   34  A    between atoms: _77  and  _78
REMARK   35  A    between atoms: _81  and  _83
REMARK   36  A    between atoms: _83  and  _84
REMARK   37  A    between atoms: _86  and  _88
REMARK   38  A    between atoms: _88  and  _89
REMARK   39  A    between atoms: _88  and  _91
REMARK   40  A    between atoms: _91  and  _92
REMARK   41  A    between atoms: _92  and  _93
REMARK   42  A    between atoms: _95  and  _97
REMARK   43  A    between atoms: _97  and  _98
REMARK   44  A    between atoms: _97  and  _100
REMARK   45  A    between atoms: _100  and  _101
REMARK   46  A    between atoms: _104  and  _106
REMARK   47  A    between atoms: _106  and  _107
REMARK   48  A    between atoms: _106  and  _109
REMARK   49  A    between atoms: _109  and  _110
REMARK   50  A    between atoms: _113  and  _115
REMARK   51  A    between atoms: _115  and  _116
REMARK   52  A    between atoms: _115  and  _118
REMARK   53  A    between atoms: _118  and  _119
REMARK   54  A    between atoms: _119  and  _120
REMARK   55  A    between atoms: _122  and  _124
REMARK   56  A    between atoms: _124  and  _125
REMARK   57  A    between atoms: _124  and  _127
REMARK   58  A    between atoms: _127  and  _128
REMARK   59  A    between atoms: _134  and  _136
REMARK   60  A    between atoms: _136  and  _137
REMARK   61  A    between atoms: _136  and  _139
REMARK   62  A    between atoms: _139  and  _140
REMARK   63  A    between atoms: _145  and  _147
REMARK   64  A    between atoms: _147  and  _148
REMARK   65  A    between atoms: _147  and  _150
REMARK   66  A    between atoms: _150  and  _151
REMARK   67  A    between atoms: _151  and  _152
REMARK   68  A    between atoms: _152  and  _153
REMARK   69  A    between atoms: _153  and  _154
REMARK   70  A    between atoms: _158  and  _160
REMARK   71  A    between atoms: _160  and  _161
REMARK   72  A    between atoms: _160  and  _163
REMARK   73  A    between atoms: _163  and  _164
REMARK   74  A    between atoms: _169  and  _170
REMARK   75  A    between atoms: _172  and  _174
REMARK   76  A    between atoms: _174  and  _175
REMARK   77  A    between atoms: _174  and  _177
REMARK   78  A    between atoms: _177  and  _178
REMARK   79  A    between atoms: _183  and  _185
REMARK   80  A    between atoms: _185  and  _186
REMARK   81  A    between atoms: _185  and  _188
REMARK   82  A    between atoms: _188  and  _189
REMARK   83  A    between atoms: _195  and  _197
REMARK   84  A    between atoms: _197  and  _198
REMARK   85  A    between atoms: _197  and  _200
REMARK   86  A    between atoms: _200  and  _201
REMARK   87  A    between atoms: _207  and  _209
REMARK   88  A    between atoms: _209  and  _210
REMARK   89  A    between atoms: _209  and  _212
REMARK   90  A    between atoms: _212  and  _213
REMARK   91  A    between atoms: _216  and  _218
REMARK   92  A    between atoms: _218  and  _219
REMARK   93  A    between atoms: _218  and  _221
REMARK   94  A    between atoms: _221  and  _222
REMARK   95  A    between atoms: _222  and  _223
REMARK   96  A    between atoms: _228  and  _230
REMARK   97  A    between atoms: _230  and  _231
REMARK   98  A    between atoms: _234  and  _236
REMARK   99  A    between atoms: _236  and  _237
REMARK  100  A    between atoms: _236  and  _239
REMARK  101  A    between atoms: _239  and  _240
REMARK  102  A    between atoms: _240  and  _241
REMARK  103  A    between atoms: _244  and  _246
REMARK  104  A    between atoms: _246  and  _247
REMARK  105  A    between atoms: _246  and  _249
REMARK  106  A    between atoms: _249  and  _250
REMARK  107  A    between atoms: _250  and  _251
REMARK  108  A    between atoms: _251  and  _252
REMARK  109  A    between atoms: _261  and  _263
REMARK  110  A    between atoms: _263  and  _264
REMARK  111  A    between atoms: _263  and  _266
REMARK  112  A    between atoms: _266  and  _267
REMARK  113  A    between atoms: _269  and  _271
REMARK  114  A    between atoms: _271  and  _272
REMARK  115  A    between atoms: _271  and  _274
REMARK  116  A    between atoms: _274  and  _275
REMARK                            x       y       z     vdW  Elec       q    Type
REMARK                         _______ _______ _______ _____ _____    ______ ____
ROOT
ATOM      1  O   HOH     1      -0.067  14.816   9.407  0.00  0.00    +0.000 OA
ENDROOT
TORSDOF 0
REMARK  Name = ../refined-set-2016/2wor/2wor_pocket.pdb
REMARK  116 active torsions:
REMARK  status: ('A' for Active; 'I' for Inactive)
REMARK    1  A    between atoms: _1  and  _3
REMARK    2  A    between atoms: _3  and  _4
REMARK    3  A    between atoms: _3  and  _6
REMARK    4  A    between atoms: _6  and  _7
REMARK    5  A    between atoms: _10  and  _12
REMARK    6  A    between atoms: _12  and  _13
REMARK    7  A    between atoms: _12  and  _15
REMARK    8  A    between atoms: _15  and  _16
REMARK    9  A    between atoms: _16  and  _17
REMARK   10  A    between atoms: _22  and  _24
REMARK   11  A    between atoms: _24  and  _25
REMARK   12  A    between atoms: _28  and  _30
REMARK   13  A    between atoms: _30  and  _31
REMARK   14  A    between atoms: _30  and  _33
REMARK   15  A    between atoms: _33  and  _34
REMARK   16  A    between atoms: _34  and  _35
REMARK   17  A    between atoms: _38  and  _40
REMARK   18  A    between atoms: _40  and  _41
REMARK   19  A    between atoms: _40  and  _43
REMARK   20  A    between atoms: _43  and  _44
REMARK   21  A    between atoms: _44  and  _45
REMARK   22  A    between atoms: _45  and  _46
REMARK   23  A    between atoms: _55  and  _57
REMARK   24  A    between atoms: _57  and  _58
REMARK   25  A    between atoms: _57  and  _60
REMARK   26  A    between atoms: _60  and  _61
REMARK   27  A    between atoms: _63  and  _65
REMARK   28  A    between atoms: _65  and  _66
REMARK   29  A    between atoms: _65  and  _68
REMARK   30  A    between atoms: _68  and  _69
REMARK   31  A    between atoms: _72  and  _74
REMARK   32  A    between atoms: _74  and  _75
REMARK   33  A    between atoms: _74  and  _77
REMARK   34  A    between atoms: _77  and  _78
REMARK   35  A    between atoms: _81  and  _83
REMARK   36  A    between atoms: _83  and  _84
REMARK   37  A    between atoms: _86  and  _88
REMARK   38  A    between atoms: _88  and  _89
REMARK   39  A    between atoms: _88  and  _91
REMARK   40  A    between atoms: _91  and  _92
REMARK   41  A    between atoms: _92  and  _93
REMARK   42  A    between atoms: _95  and  _97
REMARK   43  A    between atoms: _97  and  _98
REMARK   44  A    between atoms: _97  and  _100
REMARK   45  A    between atoms: _100  and  _101
REMARK   46  A    between atoms: _104  and  _106
REMARK   47  A    between atoms: _106  and  _107
REMARK   48  A    between atoms: _106  and  _109
REMARK   49  A    between atoms: _109  and  _110
REMARK   50  A    between atoms: _113  and  _115
REMARK   51  A    between atoms: _115  and  _116
REMARK   52  A    between atoms: _115  and  _118
REMARK   53  A    between atoms: _118  and  _119
REMARK   54  A    between atoms: _119  and  _120
REMARK   55  A    between atoms: _122  and  _124
REMARK   56  A    between atoms: _124  and  _125
REMARK   57  A    between atoms: _124  and  _127
REMARK   58  A    between atoms: _127  and  _128
REMARK   59  A    between atoms: _134  and  _136
REMARK   60  A    between atoms: _136  and  _137
REMARK   61  A    between atoms: _136  and  _139
REMARK   62  A    between atoms: _139  and  _140
REMARK   63  A    between atoms: _145  and  _147
REMARK   64  A    between atoms: _147  and  _148
REMARK   65  A    between atoms: _147  and  _150
REMARK   66  A    between atoms: _150  and  _151
REMARK   67  A    between atoms: _151  and  _152
REMARK   68  A    between atoms: _152  and  _153
REMARK   69  A    between atoms: _153  and  _154
REMARK   70  A    between atoms: _158  and  _160
REMARK   71  A    between atoms: _160  and  _161
REMARK   72  A    between atoms: _160  and  _163
REMARK   73  A    between atoms: _163  and  _164
REMARK   74  A    between atoms: _169  and  _170
REMARK   75  A    between atoms: _172  and  _174
REMARK   76  A    between atoms: _174  and  _175
REMARK   77  A    between atoms: _174  and  _177
REMARK   78  A    between atoms: _177  and  _178
REMARK   79  A    between atoms: _183  and  _185
REMARK   80  A    between atoms: _185  and  _186
REMARK   81  A    between atoms: _185  and  _188
REMARK   82  A    between atoms: _188  and  _189
REMARK   83  A    between atoms: _195  and  _197
REMARK   84  A    between atoms: _197  and  _198
REMARK   85  A    between atoms: _197  and  _200
REMARK   86  A    between atoms: _200  and  _201
REMARK   87  A    between atoms: _207  and  _209
REMARK   88  A    between atoms: _209  and  _210
REMARK   89  A    between atoms: _209  and  _212
REMARK   90  A    between atoms: _212  and  _213
REMARK   91  A    between atoms: _216  and  _218
REMARK   92  A    between atoms: _218  and  _219
REMARK   93  A    between atoms: _218  and  _221
REMARK   94  A    between atoms: _221  and  _222
REMARK   95  A    between atoms: _222  and  _223
REMARK   96  A    between atoms: _228  and  _230
REMARK   97  A    between atoms: _230  and  _231
REMARK   98  A    between atoms: _234  and  _236
REMARK   99  A    between atoms: _236  and  _237
REMARK  100  A    between atoms: _236  and  _239
REMARK  101  A    between atoms: _239  and  _240
REMARK  102  A    between atoms: _240  and  _241
REMARK  103  A    between atoms: _244  and  _246
REMARK  104  A    between atoms: _246  and  _247
REMARK  105  A    between atoms: _246  and  _249
REMARK  106  A    between atoms: _249  and  _250
REMARK  107  A    between atoms: _250  and  _251
REMARK  108  A    between atoms: _251  and  _252
REMARK  109  A    between atoms: _261  and  _263
REMARK  110  A    between atoms: _263  and  _264
REMARK  111  A    between atoms: _263  and  _266
REMARK  112  A    between atoms: _266  and  _267
REMARK  113  A    between atoms: _269  and  _271
REMARK  114  A    between atoms: _271  and  _272
REMARK  115  A    between atoms: _271  and  _274
REMARK  116  A    between atoms: _274  and  _275
REMARK                            x       y       z     vdW  Elec       q    Type
REMARK                         _______ _______ _______ _____ _____    ______ ____
ROOT
ATOM      1  O   HOH     1      -3.246  12.583   5.948  0.00  0.00    +0.000 OA
ENDROOT
TORSDOF 0
REMARK  Name = ../refined-set-2016/2wor/2wor_pocket.pdb
REMARK  116 active torsions:
REMARK  status: ('A' for Active; 'I' for Inactive)
REMARK    1  A    between atoms: _1  and  _3
REMARK    2  A    between atoms: _3  and  _4
REMARK    3  A    between atoms: _3  and  _6
REMARK    4  A    between atoms: _6  and  _7
REMARK    5  A    between atoms: _10  and  _12
REMARK    6  A    between atoms: _12  and  _13
REMARK    7  A    between atoms: _12  and  _15
REMARK    8  A    between atoms: _15  and  _16
REMARK    9  A    between atoms: _16  and  _17
REMARK   10  A    between atoms: _22  and  _24
REMARK   11  A    between atoms: _24  and  _25
REMARK   12  A    between atoms: _28  and  _30
REMARK   13  A    between atoms: _30  and  _31
REMARK   14  A    between atoms: _30  and  _33
REMARK   15  A    between atoms: _33  and  _34
REMARK   16  A    between atoms: _34  and  _35
REMARK   17  A    between atoms: _38  and  _40
REMARK   18  A    between atoms: _40  and  _41
REMARK   19  A    between atoms: _40  and  _43
REMARK   20  A    between atoms: _43  and  _44
REMARK   21  A    between atoms: _44  and  _45
REMARK   22  A    between atoms: _45  and  _46
REMARK   23  A    between atoms: _55  and  _57
REMARK   24  A    between atoms: _57  and  _58
REMARK   25  A    between atoms: _57  and  _60
REMARK   26  A    between atoms: _60  and  _61
REMARK   27  A    between atoms: _63  and  _65
REMARK   28  A    between atoms: _65  and  _66
REMARK   29  A    between atoms: _65  and  _68
REMARK   30  A    between atoms: _68  and  _69
REMARK   31  A    between atoms: _72  and  _74
REMARK   32  A    between atoms: _74  and  _75
REMARK   33  A    between atoms: _74  and  _77
REMARK   34  A    between atoms: _77  and  _78
REMARK   35  A    between atoms: _81  and  _83
REMARK   36  A    between atoms: _83  and  _84
REMARK   37  A    between atoms: _86  and  _88
REMARK   38  A    between atoms: _88  and  _89
REMARK   39  A    between atoms: _88  and  _91
REMARK   40  A    between atoms: _91  and  _92
REMARK   41  A    between atoms: _92  and  _93
REMARK   42  A    between atoms: _95  and  _97
REMARK   43  A    between atoms: _97  and  _98
REMARK   44  A    between atoms: _97  and  _100
REMARK   45  A    between atoms: _100  and  _101
REMARK   46  A    between atoms: _104  and  _106
REMARK   47  A    between atoms: _106  and  _107
REMARK   48  A    between atoms: _106  and  _109
REMARK   49  A    between atoms: _109  and  _110
REMARK   50  A    between atoms: _113  and  _115
REMARK   51  A    between atoms: _115  and  _116
REMARK   52  A    between atoms: _115  and  _118
REMARK   53  A    between atoms: _118  and  _119
REMARK   54  A    between atoms: _119  and  _120
REMARK   55  A    between atoms: _122  and  _124
REMARK   56  A    between atoms: _124  and  _125
REMARK   57  A    between atoms: _124  and  _127
REMARK   58  A    between atoms: _127  and  _128
REMARK   59  A    between atoms: _134  and  _136
REMARK   60  A    between atoms: _136  and  _137
REMARK   61  A    between atoms: _136  and  _139
REMARK   62  A    between atoms: _139  and  _140
REMARK   63  A    between atoms: _145  and  _147
REMARK   64  A    between atoms: _147  and  _148
REMARK   65  A    between atoms: _147  and  _150
REMARK   66  A    between atoms: _150  and  _151
REMARK   67  A    between atoms: _151  and  _152
REMARK   68  A    between atoms: _152  and  _153
REMARK   69  A    between atoms: _153  and  _154
REMARK   70  A    between atoms: _158  and  _160
REMARK   71  A    between atoms: _160  and  _161
REMARK   72  A    between atoms: _160  and  _163
REMARK   73  A    between atoms: _163  and  _164
REMARK   74  A    between atoms: _169  and  _170
REMARK   75  A    between atoms: _172  and  _174
REMARK   76  A    between atoms: _174  and  _175
REMARK   77  A    between atoms: _174  and  _177
REMARK   78  A    between atoms: _177  and  _178
REMARK   79  A    between atoms: _183  and  _185
REMARK   80  A    between atoms: _185  and  _186
REMARK   81  A    between atoms: _185  and  _188
REMARK   82  A    between atoms: _188  and  _189
REMARK   83  A    between atoms: _195  and  _197
REMARK   84  A    between atoms: _197  and  _198
REMARK   85  A    between atoms: _197  and  _200
REMARK   86  A    between atoms: _200  and  _201
REMARK   87  A    between atoms: _207  and  _209
REMARK   88  A    between atoms: _209  and  _210
REMARK   89  A    between atoms: _209  and  _212
REMARK   90  A    between atoms: _212  and  _213
REMARK   91  A    between atoms: _216  and  _218
REMARK   92  A    between atoms: _218  and  _219
REMARK   93  A    between atoms: _218  and  _221
REMARK   94  A    between atoms: _221  and  _222
REMARK   95  A    between atoms: _222  and  _223
REMARK   96  A    between atoms: _228  and  _230
REMARK   97  A    between atoms: _230  and  _231
REMARK   98  A    between atoms: _234  and  _236
REMARK   99  A    between atoms: _236  and  _237
REMARK  100  A    between atoms: _236  and  _239
REMARK  101  A    between atoms: _239  and  _240
REMARK  102  A    between atoms: _240  and  _241
REMARK  103  A    between atoms: _244  and  _246
REMARK  104  A    between atoms: _246  and  _247
REMARK  105  A    between atoms: _246  and  _249
REMARK  106  A    between atoms: _249  and  _250
REMARK  107  A    between atoms: _250  and  _251
REMARK  108  A    between atoms: _251  and  _252
REMARK  109  A    between atoms: _261  and  _263
REMARK  110  A    between atoms: _263  and  _264
REMARK  111  A    between atoms: _263  and  _266
REMARK  112  A    between atoms: _266  and  _267
REMARK  113  A    between atoms: _269  and  _271
REMARK  114  A    between atoms: _271  and  _272
REMARK  115  A    between atoms: _271  and  _274
REMARK  116  A    between atoms: _274  and  _275
REMARK                            x       y       z     vdW  Elec       q    Type
REMARK                         _______ _______ _______ _____ _____    ______ ____
ROOT
ATOM      1  O   HOH     1       2.679   9.279  18.364  0.00  0.00    +0.000 OA
ENDROOT
TORSDOF 0
REMARK  Name = ../refined-set-2016/2wor/2wor_pocket.pdb
REMARK  116 active torsions:
REMARK  status: ('A' for Active; 'I' for Inactive)
REMARK    1  A    between atoms: _1  and  _3
REMARK    2  A    between atoms: _3  and  _4
REMARK    3  A    between atoms: _3  and  _6
REMARK    4  A    between atoms: _6  and  _7
REMARK    5  A    between atoms: _10  and  _12
REMARK    6  A    between atoms: _12  and  _13
REMARK    7  A    between atoms: _12  and  _15
REMARK    8  A    between atoms: _15  and  _16
REMARK    9  A    between atoms: _16  and  _17
REMARK   10  A    between atoms: _22  and  _24
REMARK   11  A    between atoms: _24  and  _25
REMARK   12  A    between atoms: _28  and  _30
REMARK   13  A    between atoms: _30  and  _31
REMARK   14  A    between atoms: _30  and  _33
REMARK   15  A    between atoms: _33  and  _34
REMARK   16  A    between atoms: _34  and  _35
REMARK   17  A    between atoms: _38  and  _40
REMARK   18  A    between atoms: _40  and  _41
REMARK   19  A    between atoms: _40  and  _43
REMARK   20  A    between atoms: _43  and  _44
REMARK   21  A    between atoms: _44  and  _45
REMARK   22  A    between atoms: _45  and  _46
REMARK   23  A    between atoms: _55  and  _57
REMARK   24  A    between atoms: _57  and  _58
REMARK   25  A    between atoms: _57  and  _60
REMARK   26  A    between atoms: _60  and  _61
REMARK   27  A    between atoms: _63  and  _65
REMARK   28  A    between atoms: _65  and  _66
REMARK   29  A    between atoms: _65  and  _68
REMARK   30  A    between atoms: _68  and  _69
REMARK   31  A    between atoms: _72  and  _74
REMARK   32  A    between atoms: _74  and  _75
REMARK   33  A    between atoms: _74  and  _77
REMARK   34  A    between atoms: _77  and  _78
REMARK   35  A    between atoms: _81  and  _83
REMARK   36  A    between atoms: _83  and  _84
REMARK   37  A    between atoms: _86  and  _88
REMARK   38  A    between atoms: _88  and  _89
REMARK   39  A    between atoms: _88  and  _91
REMARK   40  A    between atoms: _91  and  _92
REMARK   41  A    between atoms: _92  and  _93
REMARK   42  A    between atoms: _95  and  _97
REMARK   43  A    between atoms: _97  and  _98
REMARK   44  A    between atoms: _97  and  _100
REMARK   45  A    between atoms: _100  and  _101
REMARK   46  A    between atoms: _104  and  _106
REMARK   47  A    between atoms: _106  and  _107
REMARK   48  A    between atoms: _106  and  _109
REMARK   49  A    between atoms: _109  and  _110
REMARK   50  A    between atoms: _113  and  _115
REMARK   51  A    between atoms: _115  and  _116
REMARK   52  A    between atoms: _115  and  _118
REMARK   53  A    between atoms: _118  and  _119
REMARK   54  A    between atoms: _119  and  _120
REMARK   55  A    between atoms: _122  and  _124
REMARK   56  A    between atoms: _124  and  _125
REMARK   57  A    between atoms: _124  and  _127
REMARK   58  A    between atoms: _127  and  _128
REMARK   59  A    between atoms: _134  and  _136
REMARK   60  A    between atoms: _136  and  _137
REMARK   61  A    between atoms: _136  and  _139
REMARK   62  A    between atoms: _139  and  _140
REMARK   63  A    between atoms: _145  and  _147
REMARK   64  A    between atoms: _147  and  _148
REMARK   65  A    between atoms: _147  and  _150
REMARK   66  A    between atoms: _150  and  _151
REMARK   67  A    between atoms: _151  and  _152
REMARK   68  A    between atoms: _152  and  _153
REMARK   69  A    between atoms: _153  and  _154
REMARK   70  A    between atoms: _158  and  _160
REMARK   71  A    between atoms: _160  and  _161
REMARK   72  A    between atoms: _160  and  _163
REMARK   73  A    between atoms: _163  and  _164
REMARK   74  A    between atoms: _169  and  _170
REMARK   75  A    between atoms: _172  and  _174
REMARK   76  A    between atoms: _174  and  _175
REMARK   77  A    between atoms: _174  and  _177
REMARK   78  A    between atoms: _177  and  _178
REMARK   79  A    between atoms: _183  and  _185
REMARK   80  A    between atoms: _185  and  _186
REMARK   81  A    between atoms: _185  and  _188
REMARK   82  A    between atoms: _188  and  _189
REMARK   83  A    between atoms: _195  and  _197
REMARK   84  A    between atoms: _197  and  _198
REMARK   85  A    between atoms: _197  and  _200
REMARK   86  A    between atoms: _200  and  _201
REMARK   87  A    between atoms: _207  and  _209
REMARK   88  A    between atoms: _209  and  _210
REMARK   89  A    between atoms: _209  and  _212
REMARK   90  A    between atoms: _212  and  _213
REMARK   91  A    between atoms: _216  and  _218
REMARK   92  A    between atoms: _218  and  _219
REMARK   93  A    between atoms: _218  and  _221
REMARK   94  A    between atoms: _221  and  _222
REMARK   95  A    between atoms: _222  and  _223
REMARK   96  A    between atoms: _228  and  _230
REMARK   97  A    between atoms: _230  and  _231
REMARK   98  A    between atoms: _234  and  _236
REMARK   99  A    between atoms: _236  and  _237
REMARK  100  A    between atoms: _236  and  _239
REMARK  101  A    between atoms: _239  and  _240
REMARK  102  A    between atoms: _240  and  _241
REMARK  103  A    between atoms: _244  and  _246
REMARK  104  A    between atoms: _246  and  _247
REMARK  105  A    between atoms: _246  and  _249
REMARK  106  A    between atoms: _249  and  _250
REMARK  107  A    between atoms: _250  and  _251
REMARK  108  A    between atoms: _251  and  _252
REMARK  109  A    between atoms: _261  and  _263
REMARK  110  A    between atoms: _263  and  _264
REMARK  111  A    between atoms: _263  and  _266
REMARK  112  A    between atoms: _266  and  _267
REMARK  113  A    between atoms: _269  and  _271
REMARK  114  A    between atoms: _271  and  _272
REMARK  115  A    between atoms: _271  and  _274
REMARK  116  A    between atoms: _274  and  _275
REMARK                            x       y       z     vdW  Elec       q    Type
REMARK                         _______ _______ _______ _____ _____    ______ ____
ROOT
ATOM      1  O   HOH     1       4.547   5.021  16.869  0.00  0.00    +0.000 OA
ENDROOT
TORSDOF 0
REMARK  Name = ../refined-set-2016/2wor/2wor_pocket.pdb
REMARK  116 active torsions:
REMARK  status: ('A' for Active; 'I' for Inactive)
REMARK    1  A    between atoms: _1  and  _3
REMARK    2  A    between atoms: _3  and  _4
REMARK    3  A    between atoms: _3  and  _6
REMARK    4  A    between atoms: _6  and  _7
REMARK    5  A    between atoms: _10  and  _12
REMARK    6  A    between atoms: _12  and  _13
REMARK    7  A    between atoms: _12  and  _15
REMARK    8  A    between atoms: _15  and  _16
REMARK    9  A    between atoms: _16  and  _17
REMARK   10  A    between atoms: _22  and  _24
REMARK   11  A    between atoms: _24  and  _25
REMARK   12  A    between atoms: _28  and  _30
REMARK   13  A    between atoms: _30  and  _31
REMARK   14  A    between atoms: _30  and  _33
REMARK   15  A    between atoms: _33  and  _34
REMARK   16  A    between atoms: _34  and  _35
REMARK   17  A    between atoms: _38  and  _40
REMARK   18  A    between atoms: _40  and  _41
REMARK   19  A    between atoms: _40  and  _43
REMARK   20  A    between atoms: _43  and  _44
REMARK   21  A    between atoms: _44  and  _45
REMARK   22  A    between atoms: _45  and  _46
REMARK   23  A    between atoms: _55  and  _57
REMARK   24  A    between atoms: _57  and  _58
REMARK   25  A    between atoms: _57  and  _60
REMARK   26  A    between atoms: _60  and  _61
REMARK   27  A    between atoms: _63  and  _65
REMARK   28  A    between atoms: _65  and  _66
REMARK   29  A    between atoms: _65  and  _68
REMARK   30  A    between atoms: _68  and  _69
REMARK   31  A    between atoms: _72  and  _74
REMARK   32  A    between atoms: _74  and  _75
REMARK   33  A    between atoms: _74  and  _77
REMARK   34  A    between atoms: _77  and  _78
REMARK   35  A    between atoms: _81  and  _83
REMARK   36  A    between atoms: _83  and  _84
REMARK   37  A    between atoms: _86  and  _88
REMARK   38  A    between atoms: _88  and  _89
REMARK   39  A    between atoms: _88  and  _91
REMARK   40  A    between atoms: _91  and  _92
REMARK   41  A    between atoms: _92  and  _93
REMARK   42  A    between atoms: _95  and  _97
REMARK   43  A    between atoms: _97  and  _98
REMARK   44  A    between atoms: _97  and  _100
REMARK   45  A    between atoms: _100  and  _101
REMARK   46  A    between atoms: _104  and  _106
REMARK   47  A    between atoms: _106  and  _107
REMARK   48  A    between atoms: _106  and  _109
REMARK   49  A    between atoms: _109  and  _110
REMARK   50  A    between atoms: _113  and  _115
REMARK   51  A    between atoms: _115  and  _116
REMARK   52  A    between atoms: _115  and  _118
REMARK   53  A    between atoms: _118  and  _119
REMARK   54  A    between atoms: _119  and  _120
REMARK   55  A    between atoms: _122  and  _124
REMARK   56  A    between atoms: _124  and  _125
REMARK   57  A    between atoms: _124  and  _127
REMARK   58  A    between atoms: _127  and  _128
REMARK   59  A    between atoms: _134  and  _136
REMARK   60  A    between atoms: _136  and  _137
REMARK   61  A    between atoms: _136  and  _139
REMARK   62  A    between atoms: _139  and  _140
REMARK   63  A    between atoms: _145  and  _147
REMARK   64  A    between atoms: _147  and  _148
REMARK   65  A    between atoms: _147  and  _150
REMARK   66  A    between atoms: _150  and  _151
REMARK   67  A    between atoms: _151  and  _152
REMARK   68  A    between atoms: _152  and  _153
REMARK   69  A    between atoms: _153  and  _154
REMARK   70  A    between atoms: _158  and  _160
REMARK   71  A    between atoms: _160  and  _161
REMARK   72  A    between atoms: _160  and  _163
REMARK   73  A    between atoms: _163  and  _164
REMARK   74  A    between atoms: _169  and  _170
REMARK   75  A    between atoms: _172  and  _174
REMARK   76  A    between atoms: _174  and  _175
REMARK   77  A    between atoms: _174  and  _177
REMARK   78  A    between atoms: _177  and  _178
REMARK   79  A    between atoms: _183  and  _185
REMARK   80  A    between atoms: _185  and  _186
REMARK   81  A    between atoms: _185  and  _188
REMARK   82  A    between atoms: _188  and  _189
REMARK   83  A    between atoms: _195  and  _197
REMARK   84  A    between atoms: _197  and  _198
REMARK   85  A    between atoms: _197  and  _200
REMARK   86  A    between atoms: _200  and  _201
REMARK   87  A    between atoms: _207  and  _209
REMARK   88  A    between atoms: _209  and  _210
REMARK   89  A    between atoms: _209  and  _212
REMARK   90  A    between atoms: _212  and  _213
REMARK   91  A    between atoms: _216  and  _218
REMARK   92  A    between atoms: _218  and  _219
REMARK   93  A    between atoms: _218  and  _221
REMARK   94  A    between atoms: _221  and  _222
REMARK   95  A    between atoms: _222  and  _223
REMARK   96  A    between atoms: _228  and  _230
REMARK   97  A    between atoms: _230  and  _231
REMARK   98  A    between atoms: _234  and  _236
REMARK   99  A    between atoms: _236  and  _237
REMARK  100  A    between atoms: _236  and  _239
REMARK  101  A    between atoms: _239  and  _240
REMARK  102  A    between atoms: _240  and  _241
REMARK  103  A    between atoms: _244  and  _246
REMARK  104  A    between atoms: _246  and  _247
REMARK  105  A    between atoms: _246  and  _249
REMARK  106  A    between atoms: _249  and  _250
REMARK  107  A    between atoms: _250  and  _251
REMARK  108  A    between atoms: _251  and  _252
REMARK  109  A    between atoms: _261  and  _263
REMARK  110  A    between atoms: _263  and  _264
REMARK  111  A    between atoms: _263  and  _266
REMARK  112  A    between atoms: _266  and  _267
REMARK  113  A    between atoms: _269  and  _271
REMARK  114  A    between atoms: _271  and  _272
REMARK  115  A    between atoms: _271  and  _274
REMARK  116  A    between atoms: _274  and  _275
REMARK                            x       y       z     vdW  Elec       q    Type
REMARK                         _______ _______ _______ _____ _____    ______ ____
ROOT
ATOM      1  O   HOH     1       6.449   2.578   8.354  0.00  0.00    +0.000 OA
ENDROOT
TORSDOF 0
REMARK  Name = ../refined-set-2016/2wor/2wor_pocket.pdb
REMARK  116 active torsions:
REMARK  status: ('A' for Active; 'I' for Inactive)
REMARK    1  A    between atoms: _1  and  _3
REMARK    2  A    between atoms: _3  and  _4
REMARK    3  A    between atoms: _3  and  _6
REMARK    4  A    between atoms: _6  and  _7
REMARK    5  A    between atoms: _10  and  _12
REMARK    6  A    between atoms: _12  and  _13
REMARK    7  A    between atoms: _12  and  _15
REMARK    8  A    between atoms: _15  and  _16
REMARK    9  A    between atoms: _16  and  _17
REMARK   10  A    between atoms: _22  and  _24
REMARK   11  A    between atoms: _24  and  _25
REMARK   12  A    between atoms: _28  and  _30
REMARK   13  A    between atoms: _30  and  _31
REMARK   14  A    between atoms: _30  and  _33
REMARK   15  A    between atoms: _33  and  _34
REMARK   16  A    between atoms: _34  and  _35
REMARK   17  A    between atoms: _38  and  _40
REMARK   18  A    between atoms: _40  and  _41
REMARK   19  A    between atoms: _40  and  _43
REMARK   20  A    between atoms: _43  and  _44
REMARK   21  A    between atoms: _44  and  _45
REMARK   22  A    between atoms: _45  and  _46
REMARK   23  A    between atoms: _55  and  _57
REMARK   24  A    between atoms: _57  and  _58
REMARK   25  A    between atoms: _57  and  _60
REMARK   26  A    between atoms: _60  and  _61
REMARK   27  A    between atoms: _63  and  _65
REMARK   28  A    between atoms: _65  and  _66
REMARK   29  A    between atoms: _65  and  _68
REMARK   30  A    between atoms: _68  and  _69
REMARK   31  A    between atoms: _72  and  _74
REMARK   32  A    between atoms: _74  and  _75
REMARK   33  A    between atoms: _74  and  _77
REMARK   34  A    between atoms: _77  and  _78
REMARK   35  A    between atoms: _81  and  _83
REMARK   36  A    between atoms: _83  and  _84
REMARK   37  A    between atoms: _86  and  _88
REMARK   38  A    between atoms: _88  and  _89
REMARK   39  A    between atoms: _88  and  _91
REMARK   40  A    between atoms: _91  and  _92
REMARK   41  A    between atoms: _92  and  _93
REMARK   42  A    between atoms: _95  and  _97
REMARK   43  A    between atoms: _97  and  _98
REMARK   44  A    between atoms: _97  and  _100
REMARK   45  A    between atoms: _100  and  _101
REMARK   46  A    between atoms: _104  and  _106
REMARK   47  A    between atoms: _106  and  _107
REMARK   48  A    between atoms: _106  and  _109
REMARK   49  A    between atoms: _109  and  _110
REMARK   50  A    between atoms: _113  and  _115
REMARK   51  A    between atoms: _115  and  _116
REMARK   52  A    between atoms: _115  and  _118
REMARK   53  A    between atoms: _118  and  _119
REMARK   54  A    between atoms: _119  and  _120
REMARK   55  A    between atoms: _122  and  _124
REMARK   56  A    between atoms: _124  and  _125
REMARK   57  A    between atoms: _124  and  _127
REMARK   58  A    between atoms: _127  and  _128
REMARK   59  A    between atoms: _134  and  _136
REMARK   60  A    between atoms: _136  and  _137
REMARK   61  A    between atoms: _136  and  _139
REMARK   62  A    between atoms: _139  and  _140
REMARK   63  A    between atoms: _145  and  _147
REMARK   64  A    between atoms: _147  and  _148
REMARK   65  A    between atoms: _147  and  _150
REMARK   66  A    between atoms: _150  and  _151
REMARK   67  A    between atoms: _151  and  _152
REMARK   68  A    between atoms: _152  and  _153
REMARK   69  A    between atoms: _153  and  _154
REMARK   70  A    between atoms: _158  and  _160
REMARK   71  A    between atoms: _160  and  _161
REMARK   72  A    between atoms: _160  and  _163
REMARK   73  A    between atoms: _163  and  _164
REMARK   74  A    between atoms: _169  and  _170
REMARK   75  A    between atoms: _172  and  _174
REMARK   76  A    between atoms: _174  and  _175
REMARK   77  A    between atoms: _174  and  _177
REMARK   78  A    between atoms: _177  and  _178
REMARK   79  A    between atoms: _183  and  _185
REMARK   80  A    between atoms: _185  and  _186
REMARK   81  A    between atoms: _185  and  _188
REMARK   82  A    between atoms: _188  and  _189
REMARK   83  A    between atoms: _195  and  _197
REMARK   84  A    between atoms: _197  and  _198
REMARK   85  A    between atoms: _197  and  _200
REMARK   86  A    between atoms: _200  and  _201
REMARK   87  A    between atoms: _207  and  _209
REMARK   88  A    between atoms: _209  and  _210
REMARK   89  A    between atoms: _209  and  _212
REMARK   90  A    between atoms: _212  and  _213
REMARK   91  A    between atoms: _216  and  _218
REMARK   92  A    between atoms: _218  and  _219
REMARK   93  A    between atoms: _218  and  _221
REMARK   94  A    between atoms: _221  and  _222
REMARK   95  A    between atoms: _222  and  _223
REMARK   96  A    between atoms: _228  and  _230
REMARK   97  A    between atoms: _230  and  _231
REMARK   98  A    between atoms: _234  and  _236
REMARK   99  A    between atoms: _236  and  _237
REMARK  100  A    between atoms: _236  and  _239
REMARK  101  A    between atoms: _239  and  _240
REMARK  102  A    between atoms: _240  and  _241
REMARK  103  A    between atoms: _244  and  _246
REMARK  104  A    between atoms: _246  and  _247
REMARK  105  A    between atoms: _246  and  _249
REMARK  106  A    between atoms: _249  and  _250
REMARK  107  A    between atoms: _250  and  _251
REMARK  108  A    between atoms: _251  and  _252
REMARK  109  A    between atoms: _261  and  _263
REMARK  110  A    between atoms: _263  and  _264
REMARK  111  A    between atoms: _263  and  _266
REMARK  112  A    between atoms: _266  and  _267
REMARK  113  A    between atoms: _269  and  _271
REMARK  114  A    between atoms: _271  and  _272
REMARK  115  A    between atoms: _271  and  _274
REMARK  116  A    between atoms: _274  and  _275
REMARK                            x       y       z     vdW  Elec       q    Type
REMARK                         _______ _______ _______ _____ _____    ______ ____
ROOT
ATOM      1  O   HOH     1      -2.308   5.870   1.935  0.00  0.00    +0.000 OA
ENDROOT
TORSDOF 0
REMARK  Name = ../refined-set-2016/2wor/2wor_pocket.pdb
REMARK  116 active torsions:
REMARK  status: ('A' for Active; 'I' for Inactive)
REMARK    1  A    between atoms: _1  and  _3
REMARK    2  A    between atoms: _3  and  _4
REMARK    3  A    between atoms: _3  and  _6
REMARK    4  A    between atoms: _6  and  _7
REMARK    5  A    between atoms: _10  and  _12
REMARK    6  A    between atoms: _12  and  _13
REMARK    7  A    between atoms: _12  and  _15
REMARK    8  A    between atoms: _15  and  _16
REMARK    9  A    between atoms: _16  and  _17
REMARK   10  A    between atoms: _22  and  _24
REMARK   11  A    between atoms: _24  and  _25
REMARK   12  A    between atoms: _28  and  _30
REMARK   13  A    between atoms: _30  and  _31
REMARK   14  A    between atoms: _30  and  _33
REMARK   15  A    between atoms: _33  and  _34
REMARK   16  A    between atoms: _34  and  _35
REMARK   17  A    between atoms: _38  and  _40
REMARK   18  A    between atoms: _40  and  _41
REMARK   19  A    between atoms: _40  and  _43
REMARK   20  A    between atoms: _43  and  _44
REMARK   21  A    between atoms: _44  and  _45
REMARK   22  A    between atoms: _45  and  _46
REMARK   23  A    between atoms: _55  and  _57
REMARK   24  A    between atoms: _57  and  _58
REMARK   25  A    between atoms: _57  and  _60
REMARK   26  A    between atoms: _60  and  _61
REMARK   27  A    between atoms: _63  and  _65
REMARK   28  A    between atoms: _65  and  _66
REMARK   29  A    between atoms: _65  and  _68
REMARK   30  A    between atoms: _68  and  _69
REMARK   31  A    between atoms: _72  and  _74
REMARK   32  A    between atoms: _74  and  _75
REMARK   33  A    between atoms: _74  and  _77
REMARK   34  A    between atoms: _77  and  _78
REMARK   35  A    between atoms: _81  and  _83
REMARK   36  A    between atoms: _83  and  _84
REMARK   37  A    between atoms: _86  and  _88
REMARK   38  A    between atoms: _88  and  _89
REMARK   39  A    between atoms: _88  and  _91
REMARK   40  A    between atoms: _91  and  _92
REMARK   41  A    between atoms: _92  and  _93
REMARK   42  A    between atoms: _95  and  _97
REMARK   43  A    between atoms: _97  and  _98
REMARK   44  A    between atoms: _97  and  _100
REMARK   45  A    between atoms: _100  and  _101
REMARK   46  A    between atoms: _104  and  _106
REMARK   47  A    between atoms: _106  and  _107
REMARK   48  A    between atoms: _106  and  _109
REMARK   49  A    between atoms: _109  and  _110
REMARK   50  A    between atoms: _113  and  _115
REMARK   51  A    between atoms: _115  and  _116
REMARK   52  A    between atoms: _115  and  _118
REMARK   53  A    between atoms: _118  and  _119
REMARK   54  A    between atoms: _119  and  _120
REMARK   55  A    between atoms: _122  and  _124
REMARK   56  A    between atoms: _124  and  _125
REMARK   57  A    between atoms: _124  and  _127
REMARK   58  A    between atoms: _127  and  _128
REMARK   59  A    between atoms: _134  and  _136
REMARK   60  A    between atoms: _136  and  _137
REMARK   61  A    between atoms: _136  and  _139
REMARK   62  A    between atoms: _139  and  _140
REMARK   63  A    between atoms: _145  and  _147
REMARK   64  A    between atoms: _147  and  _148
REMARK   65  A    between atoms: _147  and  _150
REMARK   66  A    between atoms: _150  and  _151
REMARK   67  A    between atoms: _151  and  _152
REMARK   68  A    between atoms: _152  and  _153
REMARK   69  A    between atoms: _153  and  _154
REMARK   70  A    between atoms: _158  and  _160
REMARK   71  A    between atoms: _160  and  _161
REMARK   72  A    between atoms: _160  and  _163
REMARK   73  A    between atoms: _163  and  _164
REMARK   74  A    between atoms: _169  and  _170
REMARK   75  A    between atoms: _172  and  _174
REMARK   76  A    between atoms: _174  and  _175
REMARK   77  A    between atoms: _174  and  _177
REMARK   78  A    between atoms: _177  and  _178
REMARK   79  A    between atoms: _183  and  _185
REMARK   80  A    between atoms: _185  and  _186
REMARK   81  A    between atoms: _185  and  _188
REMARK   82  A    between atoms: _188  and  _189
REMARK   83  A    between atoms: _195  and  _197
REMARK   84  A    between atoms: _197  and  _198
REMARK   85  A    between atoms: _197  and  _200
REMARK   86  A    between atoms: _200  and  _201
REMARK   87  A    between atoms: _207  and  _209
REMARK   88  A    between atoms: _209  and  _210
REMARK   89  A    between atoms: _209  and  _212
REMARK   90  A    between atoms: _212  and  _213
REMARK   91  A    between atoms: _216  and  _218
REMARK   92  A    between atoms: _218  and  _219
REMARK   93  A    between atoms: _218  and  _221
REMARK   94  A    between atoms: _221  and  _222
REMARK   95  A    between atoms: _222  and  _223
REMARK   96  A    between atoms: _228  and  _230
REMARK   97  A    between atoms: _230  and  _231
REMARK   98  A    between atoms: _234  and  _236
REMARK   99  A    between atoms: _236  and  _237
REMARK  100  A    between atoms: _236  and  _239
REMARK  101  A    between atoms: _239  and  _240
REMARK  102  A    between atoms: _240  and  _241
REMARK  103  A    between atoms: _244  and  _246
REMARK  104  A    between atoms: _246  and  _247
REMARK  105  A    between atoms: _246  and  _249
REMARK  106  A    between atoms: _249  and  _250
REMARK  107  A    between atoms: _250  and  _251
REMARK  108  A    between atoms: _251  and  _252
REMARK  109  A    between atoms: _261  and  _263
REMARK  110  A    between atoms: _263  and  _264
REMARK  111  A    between atoms: _263  and  _266
REMARK  112  A    between atoms: _266  and  _267
REMARK  113  A    between atoms: _269  and  _271
REMARK  114  A    between atoms: _271  and  _272
REMARK  115  A    between atoms: _271  and  _274
REMARK  116  A    between atoms: _274  and  _275
REMARK                            x       y       z     vdW  Elec       q    Type
REMARK                         _______ _______ _______ _____ _____    ______ ____
ROOT
ATOM      1  O   HOH     1       3.593   2.236   9.066  0.00  0.00    +0.000 OA
ENDROOT
TORSDOF 0
REMARK  Name = ../refined-set-2016/2wor/2wor_pocket.pdb
REMARK  116 active torsions:
REMARK  status: ('A' for Active; 'I' for Inactive)
REMARK    1  A    between atoms: _1  and  _3
REMARK    2  A    between atoms: _3  and  _4
REMARK    3  A    between atoms: _3  and  _6
REMARK    4  A    between atoms: _6  and  _7
REMARK    5  A    between atoms: _10  and  _12
REMARK    6  A    between atoms: _12  and  _13
REMARK    7  A    between atoms: _12  and  _15
REMARK    8  A    between atoms: _15  and  _16
REMARK    9  A    between atoms: _16  and  _17
REMARK   10  A    between atoms: _22  and  _24
REMARK   11  A    between atoms: _24  and  _25
REMARK   12  A    between atoms: _28  and  _30
REMARK   13  A    between atoms: _30  and  _31
REMARK   14  A    between atoms: _30  and  _33
REMARK   15  A    between atoms: _33  and  _34
REMARK   16  A    between atoms: _34  and  _35
REMARK   17  A    between atoms: _38  and  _40
REMARK   18  A    between atoms: _40  and  _41
REMARK   19  A    between atoms: _40  and  _43
REMARK   20  A    between atoms: _43  and  _44
REMARK   21  A    between atoms: _44  and  _45
REMARK   22  A    between atoms: _45  and  _46
REMARK   23  A    between atoms: _55  and  _57
REMARK   24  A    between atoms: _57  and  _58
REMARK   25  A    between atoms: _57  and  _60
REMARK   26  A    between atoms: _60  and  _61
REMARK   27  A    between atoms: _63  and  _65
REMARK   28  A    between atoms: _65  and  _66
REMARK   29  A    between atoms: _65  and  _68
REMARK   30  A    between atoms: _68  and  _69
REMARK   31  A    between atoms: _72  and  _74
REMARK   32  A    between atoms: _74  and  _75
REMARK   33  A    between atoms: _74  and  _77
REMARK   34  A    between atoms: _77  and  _78
REMARK   35  A    between atoms: _81  and  _83
REMARK   36  A    between atoms: _83  and  _84
REMARK   37  A    between atoms: _86  and  _88
REMARK   38  A    between atoms: _88  and  _89
REMARK   39  A    between atoms: _88  and  _91
REMARK   40  A    between atoms: _91  and  _92
REMARK   41  A    between atoms: _92  and  _93
REMARK   42  A    between atoms: _95  and  _97
REMARK   43  A    between atoms: _97  and  _98
REMARK   44  A    between atoms: _97  and  _100
REMARK   45  A    between atoms: _100  and  _101
REMARK   46  A    between atoms: _104  and  _106
REMARK   47  A    between atoms: _106  and  _107
REMARK   48  A    between atoms: _106  and  _109
REMARK   49  A    between atoms: _109  and  _110
REMARK   50  A    between atoms: _113  and  _115
REMARK   51  A    between atoms: _115  and  _116
REMARK   52  A    between atoms: _115  and  _118
REMARK   53  A    between atoms: _118  and  _119
REMARK   54  A    between atoms: _119  and  _120
REMARK   55  A    between atoms: _122  and  _124
REMARK   56  A    between atoms: _124  and  _125
REMARK   57  A    between atoms: _124  and  _127
REMARK   58  A    between atoms: _127  and  _128
REMARK   59  A    between atoms: _134  and  _136
REMARK   60  A    between atoms: _136  and  _137
REMARK   61  A    between atoms: _136  and  _139
REMARK   62  A    between atoms: _139  and  _140
REMARK   63  A    between atoms: _145  and  _147
REMARK   64  A    between atoms: _147  and  _148
REMARK   65  A    between atoms: _147  and  _150
REMARK   66  A    between atoms: _150  and  _151
REMARK   67  A    between atoms: _151  and  _152
REMARK   68  A    between atoms: _152  and  _153
REMARK   69  A    between atoms: _153  and  _154
REMARK   70  A    between atoms: _158  and  _160
REMARK   71  A    between atoms: _160  and  _161
REMARK   72  A    between atoms: _160  and  _163
REMARK   73  A    between atoms: _163  and  _164
REMARK   74  A    between atoms: _169  and  _170
REMARK   75  A    between atoms: _172  and  _174
REMARK   76  A    between atoms: _174  and  _175
REMARK   77  A    between atoms: _174  and  _177
REMARK   78  A    between atoms: _177  and  _178
REMARK   79  A    between atoms: _183  and  _185
REMARK   80  A    between atoms: _185  and  _186
REMARK   81  A    between atoms: _185  and  _188
REMARK   82  A    between atoms: _188  and  _189
REMARK   83  A    between atoms: _195  and  _197
REMARK   84  A    between atoms: _197  and  _198
REMARK   85  A    between atoms: _197  and  _200
REMARK   86  A    between atoms: _200  and  _201
REMARK   87  A    between atoms: _207  and  _209
REMARK   88  A    between atoms: _209  and  _210
REMARK   89  A    between atoms: _209  and  _212
REMARK   90  A    between atoms: _212  and  _213
REMARK   91  A    between atoms: _216  and  _218
REMARK   92  A    between atoms: _218  and  _219
REMARK   93  A    between atoms: _218  and  _221
REMARK   94  A    between atoms: _221  and  _222
REMARK   95  A    between atoms: _222  and  _223
REMARK   96  A    between atoms: _228  and  _230
REMARK   97  A    between atoms: _230  and  _231
REMARK   98  A    between atoms: _234  and  _236
REMARK   99  A    between atoms: _236  and  _237
REMARK  100  A    between atoms: _236  and  _239
REMARK  101  A    between atoms: _239  and  _240
REMARK  102  A    between atoms: _240  and  _241
REMARK  103  A    between atoms: _244  and  _246
REMARK  104  A    between atoms: _246  and  _247
REMARK  105  A    between atoms: _246  and  _249
REMARK  106  A    between atoms: _249  and  _250
REMARK  107  A    between atoms: _250  and  _251
REMARK  108  A    between atoms: _251  and  _252
REMARK  109  A    between atoms: _261  and  _263
REMARK  110  A    between atoms: _263  and  _264
REMARK  111  A    between atoms: _263  and  _266
REMARK  112  A    between atoms: _266  and  _267
REMARK  113  A    between atoms: _269  and  _271
REMARK  114  A    between atoms: _271  and  _272
REMARK  115  A    between atoms: _271  and  _274
REMARK  116  A    between atoms: _274  and  _275
REMARK                            x       y       z     vdW  Elec       q    Type
REMARK                         _______ _______ _______ _____ _____    ______ ____
ROOT
ATOM      1  O   HOH     1       4.644  -0.261   8.523  0.00  0.00    +0.000 OA
ENDROOT
TORSDOF 0
REMARK  Name = ../refined-set-2016/2wor/2wor_pocket.pdb
REMARK  116 active torsions:
REMARK  status: ('A' for Active; 'I' for Inactive)
REMARK    1  A    between atoms: _1  and  _3
REMARK    2  A    between atoms: _3  and  _4
REMARK    3  A    between atoms: _3  and  _6
REMARK    4  A    between atoms: _6  and  _7
REMARK    5  A    between atoms: _10  and  _12
REMARK    6  A    between atoms: _12  and  _13
REMARK    7  A    between atoms: _12  and  _15
REMARK    8  A    between atoms: _15  and  _16
REMARK    9  A    between atoms: _16  and  _17
REMARK   10  A    between atoms: _22  and  _24
REMARK   11  A    between atoms: _24  and  _25
REMARK   12  A    between atoms: _28  and  _30
REMARK   13  A    between atoms: _30  and  _31
REMARK   14  A    between atoms: _30  and  _33
REMARK   15  A    between atoms: _33  and  _34
REMARK   16  A    between atoms: _34  and  _35
REMARK   17  A    between atoms: _38  and  _40
REMARK   18  A    between atoms: _40  and  _41
REMARK   19  A    between atoms: _40  and  _43
REMARK   20  A    between atoms: _43  and  _44
REMARK   21  A    between atoms: _44  and  _45
REMARK   22  A    between atoms: _45  and  _46
REMARK   23  A    between atoms: _55  and  _57
REMARK   24  A    between atoms: _57  and  _58
REMARK   25  A    between atoms: _57  and  _60
REMARK   26  A    between atoms: _60  and  _61
REMARK   27  A    between atoms: _63  and  _65
REMARK   28  A    between atoms: _65  and  _66
REMARK   29  A    between atoms: _65  and  _68
REMARK   30  A    between atoms: _68  and  _69
REMARK   31  A    between atoms: _72  and  _74
REMARK   32  A    between atoms: _74  and  _75
REMARK   33  A    between atoms: _74  and  _77
REMARK   34  A    between atoms: _77  and  _78
REMARK   35  A    between atoms: _81  and  _83
REMARK   36  A    between atoms: _83  and  _84
REMARK   37  A    between atoms: _86  and  _88
REMARK   38  A    between atoms: _88  and  _89
REMARK   39  A    between atoms: _88  and  _91
REMARK   40  A    between atoms: _91  and  _92
REMARK   41  A    between atoms: _92  and  _93
REMARK   42  A    between atoms: _95  and  _97
REMARK   43  A    between atoms: _97  and  _98
REMARK   44  A    between atoms: _97  and  _100
REMARK   45  A    between atoms: _100  and  _101
REMARK   46  A    between atoms: _104  and  _106
REMARK   47  A    between atoms: _106  and  _107
REMARK   48  A    between atoms: _106  and  _109
REMARK   49  A    between atoms: _109  and  _110
REMARK   50  A    between atoms: _113  and  _115
REMARK   51  A    between atoms: _115  and  _116
REMARK   52  A    between atoms: _115  and  _118
REMARK   53  A    between atoms: _118  and  _119
REMARK   54  A    between atoms: _119  and  _120
REMARK   55  A    between atoms: _122  and  _124
REMARK   56  A    between atoms: _124  and  _125
REMARK   57  A    between atoms: _124  and  _127
REMARK   58  A    between atoms: _127  and  _128
REMARK   59  A    between atoms: _134  and  _136
REMARK   60  A    between atoms: _136  and  _137
REMARK   61  A    between atoms: _136  and  _139
REMARK   62  A    between atoms: _139  and  _140
REMARK   63  A    between atoms: _145  and  _147
REMARK   64  A    between atoms: _147  and  _148
REMARK   65  A    between atoms: _147  and  _150
REMARK   66  A    between atoms: _150  and  _151
REMARK   67  A    between atoms: _151  and  _152
REMARK   68  A    between atoms: _152  and  _153
REMARK   69  A    between atoms: _153  and  _154
REMARK   70  A    between atoms: _158  and  _160
REMARK   71  A    between atoms: _160  and  _161
REMARK   72  A    between atoms: _160  and  _163
REMARK   73  A    between atoms: _163  and  _164
REMARK   74  A    between atoms: _169  and  _170
REMARK   75  A    between atoms: _172  and  _174
REMARK   76  A    between atoms: _174  and  _175
REMARK   77  A    between atoms: _174  and  _177
REMARK   78  A    between atoms: _177  and  _178
REMARK   79  A    between atoms: _183  and  _185
REMARK   80  A    between atoms: _185  and  _186
REMARK   81  A    between atoms: _185  and  _188
REMARK   82  A    between atoms: _188  and  _189
REMARK   83  A    between atoms: _195  and  _197
REMARK   84  A    between atoms: _197  and  _198
REMARK   85  A    between atoms: _197  and  _200
REMARK   86  A    between atoms: _200  and  _201
REMARK   87  A    between atoms: _207  and  _209
REMARK   88  A    between atoms: _209  and  _210
REMARK   89  A    between atoms: _209  and  _212
REMARK   90  A    between atoms: _212  and  _213
REMARK   91  A    between atoms: _216  and  _218
REMARK   92  A    between atoms: _218  and  _219
REMARK   93  A    between atoms: _218  and  _221
REMARK   94  A    between atoms: _221  and  _222
REMARK   95  A    between atoms: _222  and  _223
REMARK   96  A    between atoms: _228  and  _230
REMARK   97  A    between atoms: _230  and  _231
REMARK   98  A    between atoms: _234  and  _236
REMARK   99  A    between atoms: _236  and  _237
REMARK  100  A    between atoms: _236  and  _239
REMARK  101  A    between atoms: _239  and  _240
REMARK  102  A    between atoms: _240  and  _241
REMARK  103  A    between atoms: _244  and  _246
REMARK  104  A    between atoms: _246  and  _247
REMARK  105  A    between atoms: _246  and  _249
REMARK  106  A    between atoms: _249  and  _250
REMARK  107  A    between atoms: _250  and  _251
REMARK  108  A    between atoms: _251  and  _252
REMARK  109  A    between atoms: _261  and  _263
REMARK  110  A    between atoms: _263  and  _264
REMARK  111  A    between atoms: _263  and  _266
REMARK  112  A    between atoms: _266  and  _267
REMARK  113  A    between atoms: _269  and  _271
REMARK  114  A    between atoms: _271  and  _272
REMARK  115  A    between atoms: _271  and  _274
REMARK  116  A    between atoms: _274  and  _275
REMARK                            x       y       z     vdW  Elec       q    Type
REMARK                         _______ _______ _______ _____ _____    ______ ____
ROOT
ATOM      1  O   HOH     1       4.015   1.932   1.289  0.00  0.00    +0.000 OA
ENDROOT
TORSDOF 0
REMARK  Name = ../refined-set-2016/2wor/2wor_pocket.pdb
REMARK  116 active torsions:
REMARK  status: ('A' for Active; 'I' for Inactive)
REMARK    1  A    between atoms: _1  and  _3
REMARK    2  A    between atoms: _3  and  _4
REMARK    3  A    between atoms: _3  and  _6
REMARK    4  A    between atoms: _6  and  _7
REMARK    5  A    between atoms: _10  and  _12
REMARK    6  A    between atoms: _12  and  _13
REMARK    7  A    between atoms: _12  and  _15
REMARK    8  A    between atoms: _15  and  _16
REMARK    9  A    between atoms: _16  and  _17
REMARK   10  A    between atoms: _22  and  _24
REMARK   11  A    between atoms: _24  and  _25
REMARK   12  A    between atoms: _28  and  _30
REMARK   13  A    between atoms: _30  and  _31
REMARK   14  A    between atoms: _30  and  _33
REMARK   15  A    between atoms: _33  and  _34
REMARK   16  A    between atoms: _34  and  _35
REMARK   17  A    between atoms: _38  and  _40
REMARK   18  A    between atoms: _40  and  _41
REMARK   19  A    between atoms: _40  and  _43
REMARK   20  A    between atoms: _43  and  _44
REMARK   21  A    between atoms: _44  and  _45
REMARK   22  A    between atoms: _45  and  _46
REMARK   23  A    between atoms: _55  and  _57
REMARK   24  A    between atoms: _57  and  _58
REMARK   25  A    between atoms: _57  and  _60
REMARK   26  A    between atoms: _60  and  _61
REMARK   27  A    between atoms: _63  and  _65
REMARK   28  A    between atoms: _65  and  _66
REMARK   29  A    between atoms: _65  and  _68
REMARK   30  A    between atoms: _68  and  _69
REMARK   31  A    between atoms: _72  and  _74
REMARK   32  A    between atoms: _74  and  _75
REMARK   33  A    between atoms: _74  and  _77
REMARK   34  A    between atoms: _77  and  _78
REMARK   35  A    between atoms: _81  and  _83
REMARK   36  A    between atoms: _83  and  _84
REMARK   37  A    between atoms: _86  and  _88
REMARK   38  A    between atoms: _88  and  _89
REMARK   39  A    between atoms: _88  and  _91
REMARK   40  A    between atoms: _91  and  _92
REMARK   41  A    between atoms: _92  and  _93
REMARK   42  A    between atoms: _95  and  _97
REMARK   43  A    between atoms: _97  and  _98
REMARK   44  A    between atoms: _97  and  _100
REMARK   45  A    between atoms: _100  and  _101
REMARK   46  A    between atoms: _104  and  _106
REMARK   47  A    between atoms: _106  and  _107
REMARK   48  A    between atoms: _106  and  _109
REMARK   49  A    between atoms: _109  and  _110
REMARK   50  A    between atoms: _113  and  _115
REMARK   51  A    between atoms: _115  and  _116
REMARK   52  A    between atoms: _115  and  _118
REMARK   53  A    between atoms: _118  and  _119
REMARK   54  A    between atoms: _119  and  _120
REMARK   55  A    between atoms: _122  and  _124
REMARK   56  A    between atoms: _124  and  _125
REMARK   57  A    between atoms: _124  and  _127
REMARK   58  A    between atoms: _127  and  _128
REMARK   59  A    between atoms: _134  and  _136
REMARK   60  A    between atoms: _136  and  _137
REMARK   61  A    between atoms: _136  and  _139
REMARK   62  A    between atoms: _139  and  _140
REMARK   63  A    between atoms: _145  and  _147
REMARK   64  A    between atoms: _147  and  _148
REMARK   65  A    between atoms: _147  and  _150
REMARK   66  A    between atoms: _150  and  _151
REMARK   67  A    between atoms: _151  and  _152
REMARK   68  A    between atoms: _152  and  _153
REMARK   69  A    between atoms: _153  and  _154
REMARK   70  A    between atoms: _158  and  _160
REMARK   71  A    between atoms: _160  and  _161
REMARK   72  A    between atoms: _160  and  _163
REMARK   73  A    between atoms: _163  and  _164
REMARK   74  A    between atoms: _169  and  _170
REMARK   75  A    between atoms: _172  and  _174
REMARK   76  A    between atoms: _174  and  _175
REMARK   77  A    between atoms: _174  and  _177
REMARK   78  A    between atoms: _177  and  _178
REMARK   79  A    between atoms: _183  and  _185
REMARK   80  A    between atoms: _185  and  _186
REMARK   81  A    between atoms: _185  and  _188
REMARK   82  A    between atoms: _188  and  _189
REMARK   83  A    between atoms: _195  and  _197
REMARK   84  A    between atoms: _197  and  _198
REMARK   85  A    between atoms: _197  and  _200
REMARK   86  A    between atoms: _200  and  _201
REMARK   87  A    between atoms: _207  and  _209
REMARK   88  A    between atoms: _209  and  _210
REMARK   89  A    between atoms: _209  and  _212
REMARK   90  A    between atoms: _212  and  _213
REMARK   91  A    between atoms: _216  and  _218
REMARK   92  A    between atoms: _218  and  _219
REMARK   93  A    between atoms: _218  and  _221
REMARK   94  A    between atoms: _221  and  _222
REMARK   95  A    between atoms: _222  and  _223
REMARK   96  A    between atoms: _228  and  _230
REMARK   97  A    between atoms: _230  and  _231
REMARK   98  A    between atoms: _234  and  _236
REMARK   99  A    between atoms: _236  and  _237
REMARK  100  A    between atoms: _236  and  _239
REMARK  101  A    between atoms: _239  and  _240
REMARK  102  A    between atoms: _240  and  _241
REMARK  103  A    between atoms: _244  and  _246
REMARK  104  A    between atoms: _246  and  _247
REMARK  105  A    between atoms: _246  and  _249
REMARK  106  A    between atoms: _249  and  _250
REMARK  107  A    between atoms: _250  and  _251
REMARK  108  A    between atoms: _251  and  _252
REMARK  109  A    between atoms: _261  and  _263
REMARK  110  A    between atoms: _263  and  _264
REMARK  111  A    between atoms: _263  and  _266
REMARK  112  A    between atoms: _266  and  _267
REMARK  113  A    between atoms: _269  and  _271
REMARK  114  A    between atoms: _271  and  _272
REMARK  115  A    between atoms: _271  and  _274
REMARK  116  A    between atoms: _274  and  _275
REMARK                            x       y       z     vdW  Elec       q    Type
REMARK                         _______ _______ _______ _____ _____    ______ ____
ROOT
ATOM      1  O   HOH     1       3.193  -2.434   7.317  0.00  0.00    +0.000 OA
ENDROOT
TORSDOF 0
