REMARK  Name = ../refined-set-2016/2p09/2p09_pocket.pdb
REMARK  141 active torsions:
REMARK  status: ('A' for Active; 'I' for Inactive)
REMARK    1  A    between atoms: _1  and  _3
REMARK    2  A    between atoms: _3  and  _4
REMARK    3  A    between atoms: _3  and  _6
REMARK    4  A    between atoms: _8  and  _10
REMARK    5  A    between atoms: _10  and  _11
REMARK    6  A    between atoms: _10  and  _13
REMARK    7  A    between atoms: _16  and  _18
REMARK    8  A    between atoms: _18  and  _19
REMARK    9  A    between atoms: _18  and  _21
REMARK   10  A    between atoms: _21  and  _22
REMARK   11  A    between atoms: _22  and  _23
REMARK   12  A    between atoms: _23  and  _24
REMARK   13  A    between atoms: _24  and  _25
REMARK   14  A    between atoms: _30  and  _31
REMARK   15  A    between atoms: _36  and  _38
REMARK   16  A    between atoms: _38  and  _39
REMARK   17  A    between atoms: _38  and  _41
REMARK   18  A    between atoms: _41  and  _42
REMARK   19  A    between atoms: _42  and  _43
REMARK   20  A    between atoms: _43  and  _44
REMARK   21  A    between atoms: _53  and  _55
REMARK   22  A    between atoms: _55  and  _56
REMARK   23  A    between atoms: _55  and  _58
REMARK   24  A    between atoms: _58  and  _59
REMARK   25  A    between atoms: _62  and  _64
REMARK   26  A    between atoms: _64  and  _65
REMARK   27  A    between atoms: _64  and  _67
REMARK   28  A    between atoms: _67  and  _68
REMARK   29  A    between atoms: _78  and  _80
REMARK   30  A    between atoms: _80  and  _81
REMARK   31  A    between atoms: _80  and  _83
REMARK   32  A    between atoms: _83  and  _84
REMARK   33  A    between atoms: _84  and  _85
REMARK   34  A    between atoms: _85  and  _86
REMARK   35  A    between atoms: _86  and  _87
REMARK   36  A    between atoms: _91  and  _93
REMARK   37  A    between atoms: _93  and  _94
REMARK   38  A    between atoms: _93  and  _96
REMARK   39  A    between atoms: _96  and  _97
REMARK   40  A    between atoms: _97  and  _98
REMARK   41  A    between atoms: _98  and  _99
REMARK   42  A    between atoms: _99  and  _100
REMARK   43  A    between atoms: _104  and  _106
REMARK   44  A    between atoms: _106  and  _107
REMARK   45  A    between atoms: _106  and  _109
REMARK   46  A    between atoms: _109  and  _110
REMARK   47  A    between atoms: _110  and  _111
REMARK   48  A    between atoms: _111  and  _112
REMARK   49  A    between atoms: _121  and  _123
REMARK   50  A    between atoms: _123  and  _124
REMARK   51  A    between atoms: _123  and  _126
REMARK   52  A    between atoms: _126  and  _127
REMARK   53  A    between atoms: _130  and  _132
REMARK   54  A    between atoms: _132  and  _133
REMARK   55  A    between atoms: _132  and  _135
REMARK   56  A    between atoms: _135  and  _136
REMARK   57  A    between atoms: _141  and  _142
REMARK   58  A    between atoms: _144  and  _146
REMARK   59  A    between atoms: _146  and  _147
REMARK   60  A    between atoms: _146  and  _149
REMARK   61  A    between atoms: _149  and  _150
REMARK   62  A    between atoms: _155  and  _157
REMARK   63  A    between atoms: _157  and  _158
REMARK   64  A    between atoms: _157  and  _160
REMARK   65  A    between atoms: _160  and  _161
REMARK   66  A    between atoms: _161  and  _162
REMARK   67  A    between atoms: _164  and  _166
REMARK   68  A    between atoms: _166  and  _167
REMARK   69  A    between atoms: _166  and  _169
REMARK   70  A    between atoms: _171  and  _173
REMARK   71  A    between atoms: _173  and  _174
REMARK   72  A    between atoms: _173  and  _176
REMARK   73  A    between atoms: _176  and  _177
REMARK   74  A    between atoms: _177  and  _178
REMARK   75  A    between atoms: _178  and  _179
REMARK   76  A    between atoms: _179  and  _180
REMARK   77  A    between atoms: _184  and  _186
REMARK   78  A    between atoms: _186  and  _187
REMARK   79  A    between atoms: _186  and  _189
REMARK   80  A    between atoms: _189  and  _190
REMARK   81  A    between atoms: _193  and  _195
REMARK   82  A    between atoms: _195  and  _196
REMARK   83  A    between atoms: _195  and  _198
REMARK   84  A    between atoms: _200  and  _202
REMARK   85  A    between atoms: _202  and  _203
REMARK   86  A    between atoms: _202  and  _205
REMARK   87  A    between atoms: _205  and  _206
REMARK   88  A    between atoms: _212  and  _214
REMARK   89  A    between atoms: _214  and  _215
REMARK   90  A    between atoms: _214  and  _217
REMARK   91  A    between atoms: _217  and  _218
REMARK   92  A    between atoms: _223  and  _225
REMARK   93  A    between atoms: _225  and  _226
REMARK   94  A    between atoms: _225  and  _228
REMARK   95  A    between atoms: _228  and  _229
REMARK   96  A    between atoms: _231  and  _233
REMARK   97  A    between atoms: _233  and  _234
REMARK   98  A    between atoms: _233  and  _236
REMARK   99  A    between atoms: _236  and  _237
REMARK  100  A    between atoms: _240  and  _242
REMARK  101  A    between atoms: _242  and  _243
REMARK  102  A    between atoms: _242  and  _245
REMARK  103  A    between atoms: _245  and  _246
REMARK  104  A    between atoms: _249  and  _251
REMARK  105  A    between atoms: _251  and  _252
REMARK  106  A    between atoms: _251  and  _254
REMARK  107  A    between atoms: _254  and  _255
REMARK  108  A    between atoms: _258  and  _260
REMARK  109  A    between atoms: _260  and  _261
REMARK  110  A    between atoms: _260  and  _263
REMARK  111  A    between atoms: _263  and  _264
REMARK  112  A    between atoms: _269  and  _270
REMARK  113  A    between atoms: _272  and  _274
REMARK  114  A    between atoms: _274  and  _275
REMARK  115  A    between atoms: _274  and  _277
REMARK  116  A    between atoms: _277  and  _278
REMARK  117  A    between atoms: _283  and  _285
REMARK  118  A    between atoms: _285  and  _286
REMARK  119  A    between atoms: _288  and  _290
REMARK  120  A    between atoms: _290  and  _291
REMARK  121  A    between atoms: _290  and  _293
REMARK  122  A    between atoms: _293  and  _294
REMARK  123  A    between atoms: _299  and  _301
REMARK  124  A    between atoms: _301  and  _302
REMARK  125  A    between atoms: _301  and  _304
REMARK  126  A    between atoms: _307  and  _309
REMARK  127  A    between atoms: _309  and  _310
REMARK  128  A    between atoms: _309  and  _312
REMARK  129  A    between atoms: _312  and  _313
REMARK  130  A    between atoms: _316  and  _318
REMARK  131  A    between atoms: _318  and  _319
REMARK  132  A    between atoms: _318  and  _321
REMARK  133  A    between atoms: _321  and  _322
REMARK  134  A    between atoms: _325  and  _327
REMARK  135  A    between atoms: _327  and  _328
REMARK  136  A    between atoms: _327  and  _330
REMARK  137  A    between atoms: _330  and  _331
REMARK  138  A    between atoms: _334  and  _336
REMARK  139  A    between atoms: _336  and  _337
REMARK  140  A    between atoms: _336  and  _339
REMARK  141  A    between atoms: _339  and  _340
REMARK                            x       y       z     vdW  Elec       q    Type
REMARK                         _______ _______ _______ _____ _____    ______ ____
ROOT
ATOM      1  C   VAL A   2       9.894  42.568  15.028  0.00  0.00    +0.241 C 
ATOM      2  N   LYS A   3       8.621  42.958  15.168  0.00  0.00    -0.298 N 
ATOM      3  H   LYS A   3       8.084  42.640  16.000  0.00  0.00    +0.150 HD
ATOM      4  O   VAL A   2      10.626  42.947  14.078  0.00  0.00    -0.273 OA
ENDROOT
BRANCH   1   5
ATOM      5  CA  VAL A   2      10.437  41.581  16.085  0.00  0.00    +0.148 C 
BRANCH   5   8
ATOM      6  C   CYS A   1       9.526  42.602  18.137  0.00  0.00    +0.239 C 
ATOM      7  O   CYS A   1      10.097  43.701  17.915  0.00  0.00    -0.274 OA
ATOM      8  N   VAL A   2       9.600  41.547  17.312  0.00  0.00    -0.297 N 
ATOM      9  H   VAL A   2       9.060  40.687  17.536  0.00  0.00    +0.150 HD
BRANCH   6  10
ATOM     10  CA  CYS A   1       8.648  42.440  19.392  0.00  0.00    +0.156 C 
BRANCH  10  11
ATOM     11  N   CYS A   1       9.417  42.861  20.596  0.00  0.00    -0.237 NA
ATOM     12  H   CYS A   1       8.918  43.401  21.332  0.00  0.00    +0.142 HD
ENDBRANCH  10  11
BRANCH  10  13
ATOM     13  CB  CYS A   1       7.457  43.405  19.283  0.00  0.00    +0.095 C 
ATOM     14  SG  CYS A   1       6.499  43.065  17.745  0.00  0.00    -0.080 S 
ENDBRANCH  10  13
ENDBRANCH   6  10
ENDBRANCH   5   8
BRANCH   5  15
ATOM     15  CB  VAL A   2      10.592  40.202  15.418  0.00  0.00    +0.027 C 
ATOM     16  CG2 VAL A   2      11.269  39.156  16.351  0.00  0.00    +0.002 C 
ATOM     17  CG1 VAL A   2       9.216  39.654  14.919  0.00  0.00    +0.002 C 
ENDBRANCH   5  15
ENDBRANCH   1   5
BRANCH   2  18
ATOM     18  CA  LYS A   3       7.960  43.825  14.177  0.00  0.00    +0.137 C 
BRANCH  18  19
ATOM     19  C   LYS A   3       8.059  45.303  14.562  0.00  0.00    +0.227 C 
ATOM     20  O   LYS A   3       8.602  46.101  13.794  0.00  0.00    -0.286 OA
ENDBRANCH  18  19
BRANCH  18  21
ATOM     21  CB  LYS A   3       6.521  43.324  13.877  0.00  0.00    +0.028 C 
BRANCH  21  22
ATOM     22  CG  LYS A   3       5.793  44.183  12.841  0.00  0.00    -0.000 C 
BRANCH  22  23
ATOM     23  CD  LYS A   3       6.425  43.946  11.452  0.00  0.00    -0.024 C 
BRANCH  23  24
ATOM     24  CE  LYS A   3       5.764  44.911  10.478  0.00  0.00    -0.086 C 
BRANCH  24  25
ATOM     25  NZ  LYS A   3       6.361  44.695   9.134  0.00  0.00    +0.380 N 
ATOM     26  HZ1 LYS A   3       7.384  44.875   9.178  0.00  0.00    -0.089 HD
ATOM     27  HZ2 LYS A   3       6.193  43.713   8.835  0.00  0.00    -0.089 HD
ATOM     28  HZ3 LYS A   3       5.922  45.346   8.452  0.00  0.00    -0.089 HD
ENDBRANCH  24  25
ENDBRANCH  23  24
ENDBRANCH  22  23
ENDBRANCH  21  22
ENDBRANCH  18  21
ENDBRANCH   2  18
TORSDOF 13
REMARK  Name = ../refined-set-2016/2p09/2p09_pocket.pdb
REMARK  141 active torsions:
REMARK  status: ('A' for Active; 'I' for Inactive)
REMARK    1  A    between atoms: _1  and  _3
REMARK    2  A    between atoms: _3  and  _4
REMARK    3  A    between atoms: _3  and  _6
REMARK    4  A    between atoms: _8  and  _10
REMARK    5  A    between atoms: _10  and  _11
REMARK    6  A    between atoms: _10  and  _13
REMARK    7  A    between atoms: _16  and  _18
REMARK    8  A    between atoms: _18  and  _19
REMARK    9  A    between atoms: _18  and  _21
REMARK   10  A    between atoms: _21  and  _22
REMARK   11  A    between atoms: _22  and  _23
REMARK   12  A    between atoms: _23  and  _24
REMARK   13  A    between atoms: _24  and  _25
REMARK   14  A    between atoms: _30  and  _31
REMARK   15  A    between atoms: _36  and  _38
REMARK   16  A    between atoms: _38  and  _39
REMARK   17  A    between atoms: _38  and  _41
REMARK   18  A    between atoms: _41  and  _42
REMARK   19  A    between atoms: _42  and  _43
REMARK   20  A    between atoms: _43  and  _44
REMARK   21  A    between atoms: _53  and  _55
REMARK   22  A    between atoms: _55  and  _56
REMARK   23  A    between atoms: _55  and  _58
REMARK   24  A    between atoms: _58  and  _59
REMARK   25  A    between atoms: _62  and  _64
REMARK   26  A    between atoms: _64  and  _65
REMARK   27  A    between atoms: _64  and  _67
REMARK   28  A    between atoms: _67  and  _68
REMARK   29  A    between atoms: _78  and  _80
REMARK   30  A    between atoms: _80  and  _81
REMARK   31  A    between atoms: _80  and  _83
REMARK   32  A    between atoms: _83  and  _84
REMARK   33  A    between atoms: _84  and  _85
REMARK   34  A    between atoms: _85  and  _86
REMARK   35  A    between atoms: _86  and  _87
REMARK   36  A    between atoms: _91  and  _93
REMARK   37  A    between atoms: _93  and  _94
REMARK   38  A    between atoms: _93  and  _96
REMARK   39  A    between atoms: _96  and  _97
REMARK   40  A    between atoms: _97  and  _98
REMARK   41  A    between atoms: _98  and  _99
REMARK   42  A    between atoms: _99  and  _100
REMARK   43  A    between atoms: _104  and  _106
REMARK   44  A    between atoms: _106  and  _107
REMARK   45  A    between atoms: _106  and  _109
REMARK   46  A    between atoms: _109  and  _110
REMARK   47  A    between atoms: _110  and  _111
REMARK   48  A    between atoms: _111  and  _112
REMARK   49  A    between atoms: _121  and  _123
REMARK   50  A    between atoms: _123  and  _124
REMARK   51  A    between atoms: _123  and  _126
REMARK   52  A    between atoms: _126  and  _127
REMARK   53  A    between atoms: _130  and  _132
REMARK   54  A    between atoms: _132  and  _133
REMARK   55  A    between atoms: _132  and  _135
REMARK   56  A    between atoms: _135  and  _136
REMARK   57  A    between atoms: _141  and  _142
REMARK   58  A    between atoms: _144  and  _146
REMARK   59  A    between atoms: _146  and  _147
REMARK   60  A    between atoms: _146  and  _149
REMARK   61  A    between atoms: _149  and  _150
REMARK   62  A    between atoms: _155  and  _157
REMARK   63  A    between atoms: _157  and  _158
REMARK   64  A    between atoms: _157  and  _160
REMARK   65  A    between atoms: _160  and  _161
REMARK   66  A    between atoms: _161  and  _162
REMARK   67  A    between atoms: _164  and  _166
REMARK   68  A    between atoms: _166  and  _167
REMARK   69  A    between atoms: _166  and  _169
REMARK   70  A    between atoms: _171  and  _173
REMARK   71  A    between atoms: _173  and  _174
REMARK   72  A    between atoms: _173  and  _176
REMARK   73  A    between atoms: _176  and  _177
REMARK   74  A    between atoms: _177  and  _178
REMARK   75  A    between atoms: _178  and  _179
REMARK   76  A    between atoms: _179  and  _180
REMARK   77  A    between atoms: _184  and  _186
REMARK   78  A    between atoms: _186  and  _187
REMARK   79  A    between atoms: _186  and  _189
REMARK   80  A    between atoms: _189  and  _190
REMARK   81  A    between atoms: _193  and  _195
REMARK   82  A    between atoms: _195  and  _196
REMARK   83  A    between atoms: _195  and  _198
REMARK   84  A    between atoms: _200  and  _202
REMARK   85  A    between atoms: _202  and  _203
REMARK   86  A    between atoms: _202  and  _205
REMARK   87  A    between atoms: _205  and  _206
REMARK   88  A    between atoms: _212  and  _214
REMARK   89  A    between atoms: _214  and  _215
REMARK   90  A    between atoms: _214  and  _217
REMARK   91  A    between atoms: _217  and  _218
REMARK   92  A    between atoms: _223  and  _225
REMARK   93  A    between atoms: _225  and  _226
REMARK   94  A    between atoms: _225  and  _228
REMARK   95  A    between atoms: _228  and  _229
REMARK   96  A    between atoms: _231  and  _233
REMARK   97  A    between atoms: _233  and  _234
REMARK   98  A    between atoms: _233  and  _236
REMARK   99  A    between atoms: _236  and  _237
REMARK  100  A    between atoms: _240  and  _242
REMARK  101  A    between atoms: _242  and  _243
REMARK  102  A    between atoms: _242  and  _245
REMARK  103  A    between atoms: _245  and  _246
REMARK  104  A    between atoms: _249  and  _251
REMARK  105  A    between atoms: _251  and  _252
REMARK  106  A    between atoms: _251  and  _254
REMARK  107  A    between atoms: _254  and  _255
REMARK  108  A    between atoms: _258  and  _260
REMARK  109  A    between atoms: _260  and  _261
REMARK  110  A    between atoms: _260  and  _263
REMARK  111  A    between atoms: _263  and  _264
REMARK  112  A    between atoms: _269  and  _270
REMARK  113  A    between atoms: _272  and  _274
REMARK  114  A    between atoms: _274  and  _275
REMARK  115  A    between atoms: _274  and  _277
REMARK  116  A    between atoms: _277  and  _278
REMARK  117  A    between atoms: _283  and  _285
REMARK  118  A    between atoms: _285  and  _286
REMARK  119  A    between atoms: _288  and  _290
REMARK  120  A    between atoms: _290  and  _291
REMARK  121  A    between atoms: _290  and  _293
REMARK  122  A    between atoms: _293  and  _294
REMARK  123  A    between atoms: _299  and  _301
REMARK  124  A    between atoms: _301  and  _302
REMARK  125  A    between atoms: _301  and  _304
REMARK  126  A    between atoms: _307  and  _309
REMARK  127  A    between atoms: _309  and  _310
REMARK  128  A    between atoms: _309  and  _312
REMARK  129  A    between atoms: _312  and  _313
REMARK  130  A    between atoms: _316  and  _318
REMARK  131  A    between atoms: _318  and  _319
REMARK  132  A    between atoms: _318  and  _321
REMARK  133  A    between atoms: _321  and  _322
REMARK  134  A    between atoms: _325  and  _327
REMARK  135  A    between atoms: _327  and  _328
REMARK  136  A    between atoms: _327  and  _330
REMARK  137  A    between atoms: _330  and  _331
REMARK  138  A    between atoms: _334  and  _336
REMARK  139  A    between atoms: _336  and  _337
REMARK  140  A    between atoms: _336  and  _339
REMARK  141  A    between atoms: _339  and  _340
REMARK                            x       y       z     vdW  Elec       q    Type
REMARK                         _______ _______ _______ _____ _____    ______ ____
ROOT
ATOM      1  CA  ASP A   3       3.264  38.054  23.611  0.00  0.00    +0.160 C 
ENDROOT
BRANCH   1   2
ATOM      2  C   ASP A   3       3.916  36.713  24.025  0.00  0.00    +0.241 C 
ATOM      3  N   TRP A   4       3.240  36.002  24.916  0.00  0.00    -0.297 N 
ATOM      4  H   TRP A   4       2.321  36.354  25.252  0.00  0.00    +0.150 HD
ATOM      5  O   ASP A   3       5.012  36.371  23.536  0.00  0.00    -0.273 OA
BRANCH   3   6
ATOM      6  CA  TRP A   4       3.758  34.722  25.445  0.00  0.00    +0.153 C 
BRANCH   6   7
ATOM      7  C   TRP A   4       2.605  33.944  26.051  0.00  0.00    +0.241 C 
ATOM      8  N   LYS A   5       2.842  32.670  26.327  0.00  0.00    -0.298 N 
ATOM      9  H   LYS A   5       3.712  32.219  25.980  0.00  0.00    +0.150 HD
ATOM     10  O   TRP A   4       1.505  34.481  26.292  0.00  0.00    -0.273 OA
BRANCH   8  11
ATOM     11  CA  LYS A   5       1.890  31.898  27.114  0.00  0.00    +0.137 C 
BRANCH  11  12
ATOM     12  C   LYS A   5       2.642  30.800  27.826  0.00  0.00    +0.227 C 
ATOM     13  O   LYS A   5       3.787  30.482  27.448  0.00  0.00    -0.286 OA
ENDBRANCH  11  12
BRANCH  11  14
ATOM     14  CB  LYS A   5       0.775  31.301  26.254  0.00  0.00    +0.028 C 
BRANCH  14  15
ATOM     15  CG  LYS A   5       1.201  30.193  25.316  0.00  0.00    -0.000 C 
BRANCH  15  16
ATOM     16  CD  LYS A   5      -0.060  29.520  24.710  0.00  0.00    -0.024 C 
BRANCH  16  17
ATOM     17  CE  LYS A   5       0.364  28.280  23.914  0.00  0.00    -0.086 C 
BRANCH  17  18
ATOM     18  NZ  LYS A   5      -0.804  27.550  23.272  0.00  0.00    +0.380 N 
ATOM     19  HZ1 LYS A   5      -1.465  27.237  24.012  0.00  0.00    -0.089 HD
ATOM     20  HZ2 LYS A   5      -0.450  26.723  22.750  0.00  0.00    -0.089 HD
ATOM     21  HZ3 LYS A   5      -1.294  28.192  22.616  0.00  0.00    -0.089 HD
ENDBRANCH  17  18
ENDBRANCH  16  17
ENDBRANCH  15  16
ENDBRANCH  14  15
ENDBRANCH  11  14
ENDBRANCH   8  11
ENDBRANCH   6   7
BRANCH   6  22
ATOM     22  CB  TRP A   4       4.832  35.035  26.543  0.00  0.00    +0.057 C 
BRANCH  22  23
ATOM     23  CG  TRP A   4       4.253  35.873  27.663  0.00  0.00    -0.002 A 
ATOM     24  CD2 TRP A   4       3.652  35.402  28.888  0.00  0.00    +0.013 A 
ATOM     25  CE2 TRP A   4       3.203  36.545  29.595  0.00  0.00    +0.056 A 
ATOM     26  CZ2 TRP A   4       2.546  36.452  30.845  0.00  0.00    +0.017 A 
ATOM     27  CH2 TRP A   4       2.374  35.206  31.387  0.00  0.00    +0.001 A 
ATOM     28  CZ3 TRP A   4       2.812  34.031  30.706  0.00  0.00    +0.000 A 
ATOM     29  NE1 TRP A   4       3.501  37.656  28.849  0.00  0.00    -0.352 N 
ATOM     30  HE1 TRP A   4       3.294  38.639  29.120  0.00  0.00    +0.166 HD
ATOM     31  CE3 TRP A   4       3.440  34.125  29.447  0.00  0.00    +0.001 A 
ATOM     32  CD1 TRP A   4       4.123  37.258  27.675  0.00  0.00    +0.068 A 
ENDBRANCH  22  23
ENDBRANCH   6  22
ENDBRANCH   3   6
ENDBRANCH   1   2
BRANCH   1  35
ATOM     33  C   ARG A   2       5.228  39.372  23.763  0.00  0.00    +0.241 C 
ATOM     34  O   ARG A   2       5.197  39.249  25.021  0.00  0.00    -0.273 OA
ATOM     35  N   ASP A   3       4.270  38.874  22.990  0.00  0.00    -0.297 N 
ATOM     36  H   ASP A   3       4.248  39.070  21.969  0.00  0.00    +0.150 HD
BRANCH  33  37
ATOM     37  CA  ARG A   2       6.422  39.981  23.038  0.00  0.00    +0.149 C 
BRANCH  37  39
ATOM     38  C   PRO A   1       6.572  42.234  23.930  0.00  0.00    +0.249 C 
ATOM     39  N   ARG A   2       7.097  41.021  23.772  0.00  0.00    -0.296 N 
ATOM     40  H   ARG A   2       8.026  40.817  24.193  0.00  0.00    +0.150 HD
ATOM     41  O   PRO A   1       5.465  42.566  23.444  0.00  0.00    -0.273 OA
BRANCH  38  46
ATOM     42  N   PRO A   1       7.114  44.627  24.364  0.00  0.00    -0.257 NA
ATOM     43  CD  PRO A   1       6.434  45.333  25.489  0.00  0.00    +0.094 C 
ATOM     44  CG  PRO A   1       6.559  44.354  26.626  0.00  0.00    +0.018 C 
ATOM     45  CB  PRO A   1       7.194  43.090  26.210  0.00  0.00    +0.008 C 
ATOM     46  CA  PRO A   1       7.469  43.228  24.682  0.00  0.00    +0.201 C 
ENDBRANCH  38  46
ENDBRANCH  37  39
BRANCH  37  47
ATOM     47  CB  ARG A   2       7.435  38.850  22.706  0.00  0.00    +0.033 C 
BRANCH  47  48
ATOM     48  CG  ARG A   2       8.488  39.364  21.733  0.00  0.00    +0.045 C 
BRANCH  48  49
ATOM     49  CD  ARG A   2       9.630  38.345  21.577  0.00  0.00    +0.174 C 
BRANCH  49  50
ATOM     50  NE  ARG A   2      10.723  39.001  20.857  0.00  0.00    -0.265 N 
ATOM     51  HE  ARG A   2      10.813  40.031  20.970  0.00  0.00    +0.259 HD
ATOM     52  CZ  ARG A   2      11.616  38.395  20.067  0.00  0.00    +0.342 C 
ATOM     53  NH2 ARG A   2      11.540  37.077  19.803  0.00  0.00    -0.292 N 
ATOM     54 HH21 ARG A   2      10.775  36.507  20.217  0.00  0.00    +0.255 HD
ATOM     55 HH22 ARG A   2      12.247  36.629  19.185  0.00  0.00    +0.255 HD
ATOM     56  NH1 ARG A   2      12.584  39.124  19.506  0.00  0.00    -0.292 N 
ATOM     57 HH11 ARG A   2      12.635  40.147  19.686  0.00  0.00    +0.255 HD
ATOM     58 HH12 ARG A   2      13.287  38.669  18.889  0.00  0.00    +0.255 HD
ENDBRANCH  49  50
ENDBRANCH  48  49
ENDBRANCH  47  48
ENDBRANCH  37  47
ENDBRANCH  33  37
ENDBRANCH   1  35
BRANCH   1  59
ATOM     59  CB  ASP A   3       2.115  37.768  22.639  0.00  0.00    +0.143 C 
BRANCH  59  60
ATOM     60  CG  ASP A   3       0.864  37.235  23.383  0.00  0.00    +0.367 C 
ATOM     61  OD2 ASP A   3       0.746  37.435  24.617  0.00  0.00    -0.246 OA
ATOM     62  OD1 ASP A   3       0.045  36.546  22.739  0.00  0.00    -0.246 OA
ENDBRANCH  59  60
ENDBRANCH   1  59
TORSDOF 22
REMARK  Name = ../refined-set-2016/2p09/2p09_pocket.pdb
REMARK  141 active torsions:
REMARK  status: ('A' for Active; 'I' for Inactive)
REMARK    1  A    between atoms: _1  and  _3
REMARK    2  A    between atoms: _3  and  _4
REMARK    3  A    between atoms: _3  and  _6
REMARK    4  A    between atoms: _8  and  _10
REMARK    5  A    between atoms: _10  and  _11
REMARK    6  A    between atoms: _10  and  _13
REMARK    7  A    between atoms: _16  and  _18
REMARK    8  A    between atoms: _18  and  _19
REMARK    9  A    between atoms: _18  and  _21
REMARK   10  A    between atoms: _21  and  _22
REMARK   11  A    between atoms: _22  and  _23
REMARK   12  A    between atoms: _23  and  _24
REMARK   13  A    between atoms: _24  and  _25
REMARK   14  A    between atoms: _30  and  _31
REMARK   15  A    between atoms: _36  and  _38
REMARK   16  A    between atoms: _38  and  _39
REMARK   17  A    between atoms: _38  and  _41
REMARK   18  A    between atoms: _41  and  _42
REMARK   19  A    between atoms: _42  and  _43
REMARK   20  A    between atoms: _43  and  _44
REMARK   21  A    between atoms: _53  and  _55
REMARK   22  A    between atoms: _55  and  _56
REMARK   23  A    between atoms: _55  and  _58
REMARK   24  A    between atoms: _58  and  _59
REMARK   25  A    between atoms: _62  and  _64
REMARK   26  A    between atoms: _64  and  _65
REMARK   27  A    between atoms: _64  and  _67
REMARK   28  A    between atoms: _67  and  _68
REMARK   29  A    between atoms: _78  and  _80
REMARK   30  A    between atoms: _80  and  _81
REMARK   31  A    between atoms: _80  and  _83
REMARK   32  A    between atoms: _83  and  _84
REMARK   33  A    between atoms: _84  and  _85
REMARK   34  A    between atoms: _85  and  _86
REMARK   35  A    between atoms: _86  and  _87
REMARK   36  A    between atoms: _91  and  _93
REMARK   37  A    between atoms: _93  and  _94
REMARK   38  A    between atoms: _93  and  _96
REMARK   39  A    between atoms: _96  and  _97
REMARK   40  A    between atoms: _97  and  _98
REMARK   41  A    between atoms: _98  and  _99
REMARK   42  A    between atoms: _99  and  _100
REMARK   43  A    between atoms: _104  and  _106
REMARK   44  A    between atoms: _106  and  _107
REMARK   45  A    between atoms: _106  and  _109
REMARK   46  A    between atoms: _109  and  _110
REMARK   47  A    between atoms: _110  and  _111
REMARK   48  A    between atoms: _111  and  _112
REMARK   49  A    between atoms: _121  and  _123
REMARK   50  A    between atoms: _123  and  _124
REMARK   51  A    between atoms: _123  and  _126
REMARK   52  A    between atoms: _126  and  _127
REMARK   53  A    between atoms: _130  and  _132
REMARK   54  A    between atoms: _132  and  _133
REMARK   55  A    between atoms: _132  and  _135
REMARK   56  A    between atoms: _135  and  _136
REMARK   57  A    between atoms: _141  and  _142
REMARK   58  A    between atoms: _144  and  _146
REMARK   59  A    between atoms: _146  and  _147
REMARK   60  A    between atoms: _146  and  _149
REMARK   61  A    between atoms: _149  and  _150
REMARK   62  A    between atoms: _155  and  _157
REMARK   63  A    between atoms: _157  and  _158
REMARK   64  A    between atoms: _157  and  _160
REMARK   65  A    between atoms: _160  and  _161
REMARK   66  A    between atoms: _161  and  _162
REMARK   67  A    between atoms: _164  and  _166
REMARK   68  A    between atoms: _166  and  _167
REMARK   69  A    between atoms: _166  and  _169
REMARK   70  A    between atoms: _171  and  _173
REMARK   71  A    between atoms: _173  and  _174
REMARK   72  A    between atoms: _173  and  _176
REMARK   73  A    between atoms: _176  and  _177
REMARK   74  A    between atoms: _177  and  _178
REMARK   75  A    between atoms: _178  and  _179
REMARK   76  A    between atoms: _179  and  _180
REMARK   77  A    between atoms: _184  and  _186
REMARK   78  A    between atoms: _186  and  _187
REMARK   79  A    between atoms: _186  and  _189
REMARK   80  A    between atoms: _189  and  _190
REMARK   81  A    between atoms: _193  and  _195
REMARK   82  A    between atoms: _195  and  _196
REMARK   83  A    between atoms: _195  and  _198
REMARK   84  A    between atoms: _200  and  _202
REMARK   85  A    between atoms: _202  and  _203
REMARK   86  A    between atoms: _202  and  _205
REMARK   87  A    between atoms: _205  and  _206
REMARK   88  A    between atoms: _212  and  _214
REMARK   89  A    between atoms: _214  and  _215
REMARK   90  A    between atoms: _214  and  _217
REMARK   91  A    between atoms: _217  and  _218
REMARK   92  A    between atoms: _223  and  _225
REMARK   93  A    between atoms: _225  and  _226
REMARK   94  A    between atoms: _225  and  _228
REMARK   95  A    between atoms: _228  and  _229
REMARK   96  A    between atoms: _231  and  _233
REMARK   97  A    between atoms: _233  and  _234
REMARK   98  A    between atoms: _233  and  _236
REMARK   99  A    between atoms: _236  and  _237
REMARK  100  A    between atoms: _240  and  _242
REMARK  101  A    between atoms: _242  and  _243
REMARK  102  A    between atoms: _242  and  _245
REMARK  103  A    between atoms: _245  and  _246
REMARK  104  A    between atoms: _249  and  _251
REMARK  105  A    between atoms: _251  and  _252
REMARK  106  A    between atoms: _251  and  _254
REMARK  107  A    between atoms: _254  and  _255
REMARK  108  A    between atoms: _258  and  _260
REMARK  109  A    between atoms: _260  and  _261
REMARK  110  A    between atoms: _260  and  _263
REMARK  111  A    between atoms: _263  and  _264
REMARK  112  A    between atoms: _269  and  _270
REMARK  113  A    between atoms: _272  and  _274
REMARK  114  A    between atoms: _274  and  _275
REMARK  115  A    between atoms: _274  and  _277
REMARK  116  A    between atoms: _277  and  _278
REMARK  117  A    between atoms: _283  and  _285
REMARK  118  A    between atoms: _285  and  _286
REMARK  119  A    between atoms: _288  and  _290
REMARK  120  A    between atoms: _290  and  _291
REMARK  121  A    between atoms: _290  and  _293
REMARK  122  A    between atoms: _293  and  _294
REMARK  123  A    between atoms: _299  and  _301
REMARK  124  A    between atoms: _301  and  _302
REMARK  125  A    between atoms: _301  and  _304
REMARK  126  A    between atoms: _307  and  _309
REMARK  127  A    between atoms: _309  and  _310
REMARK  128  A    between atoms: _309  and  _312
REMARK  129  A    between atoms: _312  and  _313
REMARK  130  A    between atoms: _316  and  _318
REMARK  131  A    between atoms: _318  and  _319
REMARK  132  A    between atoms: _318  and  _321
REMARK  133  A    between atoms: _321  and  _322
REMARK  134  A    between atoms: _325  and  _327
REMARK  135  A    between atoms: _327  and  _328
REMARK  136  A    between atoms: _327  and  _330
REMARK  137  A    between atoms: _330  and  _331
REMARK  138  A    between atoms: _334  and  _336
REMARK  139  A    between atoms: _336  and  _337
REMARK  140  A    between atoms: _336  and  _339
REMARK  141  A    between atoms: _339  and  _340
REMARK                            x       y       z     vdW  Elec       q    Type
REMARK                         _______ _______ _______ _____ _____    ______ ____
ROOT
ATOM      1  CG  LYS A   1       3.256  24.698  25.246  0.00  0.00    -0.000 C 
ENDROOT
BRANCH   1   2
ATOM      2  CB  LYS A   1       3.178  25.884  26.231  0.00  0.00    +0.025 C 
BRANCH   2   3
ATOM      3  CA  LYS A   1       2.517  25.682  27.610  0.00  0.00    +0.133 C 
BRANCH   3   4
ATOM      4  N   LYS A   1       2.841  26.867  28.439  0.00  0.00    -0.239 NA
ATOM      5  H   LYS A   1       3.820  26.969  28.776  0.00  0.00    +0.142 HD
ENDBRANCH   3   4
BRANCH   3   6
ATOM      6  C   LYS A   1       3.127  24.530  28.430  0.00  0.00    +0.224 C 
ATOM      7  O   LYS A   1       4.292  24.207  28.256  0.00  0.00    -0.287 OA
ENDBRANCH   3   6
ENDBRANCH   2   3
ENDBRANCH   1   2
BRANCH   1   8
ATOM      8  CD  LYS A   1       2.190  24.805  24.140  0.00  0.00    -0.024 C 
BRANCH   8   9
ATOM      9  CE  LYS A   1       2.037  23.444  23.463  0.00  0.00    -0.086 C 
BRANCH   9  10
ATOM     10  NZ  LYS A   1       0.653  23.255  22.920  0.00  0.00    +0.380 N 
ATOM     11  HZ1 LYS A   1      -0.035  23.316  23.698  0.00  0.00    -0.089 HD
ATOM     12  HZ2 LYS A   1       0.584  22.321  22.467  0.00  0.00    -0.089 HD
ATOM     13  HZ3 LYS A   1       0.453  23.997  22.219  0.00  0.00    -0.089 HD
ENDBRANCH   9  10
ENDBRANCH   8   9
ENDBRANCH   1   8
TORSDOF 7
REMARK  Name = ../refined-set-2016/2p09/2p09_pocket.pdb
REMARK  141 active torsions:
REMARK  status: ('A' for Active; 'I' for Inactive)
REMARK    1  A    between atoms: _1  and  _3
REMARK    2  A    between atoms: _3  and  _4
REMARK    3  A    between atoms: _3  and  _6
REMARK    4  A    between atoms: _8  and  _10
REMARK    5  A    between atoms: _10  and  _11
REMARK    6  A    between atoms: _10  and  _13
REMARK    7  A    between atoms: _16  and  _18
REMARK    8  A    between atoms: _18  and  _19
REMARK    9  A    between atoms: _18  and  _21
REMARK   10  A    between atoms: _21  and  _22
REMARK   11  A    between atoms: _22  and  _23
REMARK   12  A    between atoms: _23  and  _24
REMARK   13  A    between atoms: _24  and  _25
REMARK   14  A    between atoms: _30  and  _31
REMARK   15  A    between atoms: _36  and  _38
REMARK   16  A    between atoms: _38  and  _39
REMARK   17  A    between atoms: _38  and  _41
REMARK   18  A    between atoms: _41  and  _42
REMARK   19  A    between atoms: _42  and  _43
REMARK   20  A    between atoms: _43  and  _44
REMARK   21  A    between atoms: _53  and  _55
REMARK   22  A    between atoms: _55  and  _56
REMARK   23  A    between atoms: _55  and  _58
REMARK   24  A    between atoms: _58  and  _59
REMARK   25  A    between atoms: _62  and  _64
REMARK   26  A    between atoms: _64  and  _65
REMARK   27  A    between atoms: _64  and  _67
REMARK   28  A    between atoms: _67  and  _68
REMARK   29  A    between atoms: _78  and  _80
REMARK   30  A    between atoms: _80  and  _81
REMARK   31  A    between atoms: _80  and  _83
REMARK   32  A    between atoms: _83  and  _84
REMARK   33  A    between atoms: _84  and  _85
REMARK   34  A    between atoms: _85  and  _86
REMARK   35  A    between atoms: _86  and  _87
REMARK   36  A    between atoms: _91  and  _93
REMARK   37  A    between atoms: _93  and  _94
REMARK   38  A    between atoms: _93  and  _96
REMARK   39  A    between atoms: _96  and  _97
REMARK   40  A    between atoms: _97  and  _98
REMARK   41  A    between atoms: _98  and  _99
REMARK   42  A    between atoms: _99  and  _100
REMARK   43  A    between atoms: _104  and  _106
REMARK   44  A    between atoms: _106  and  _107
REMARK   45  A    between atoms: _106  and  _109
REMARK   46  A    between atoms: _109  and  _110
REMARK   47  A    between atoms: _110  and  _111
REMARK   48  A    between atoms: _111  and  _112
REMARK   49  A    between atoms: _121  and  _123
REMARK   50  A    between atoms: _123  and  _124
REMARK   51  A    between atoms: _123  and  _126
REMARK   52  A    between atoms: _126  and  _127
REMARK   53  A    between atoms: _130  and  _132
REMARK   54  A    between atoms: _132  and  _133
REMARK   55  A    between atoms: _132  and  _135
REMARK   56  A    between atoms: _135  and  _136
REMARK   57  A    between atoms: _141  and  _142
REMARK   58  A    between atoms: _144  and  _146
REMARK   59  A    between atoms: _146  and  _147
REMARK   60  A    between atoms: _146  and  _149
REMARK   61  A    between atoms: _149  and  _150
REMARK   62  A    between atoms: _155  and  _157
REMARK   63  A    between atoms: _157  and  _158
REMARK   64  A    between atoms: _157  and  _160
REMARK   65  A    between atoms: _160  and  _161
REMARK   66  A    between atoms: _161  and  _162
REMARK   67  A    between atoms: _164  and  _166
REMARK   68  A    between atoms: _166  and  _167
REMARK   69  A    between atoms: _166  and  _169
REMARK   70  A    between atoms: _171  and  _173
REMARK   71  A    between atoms: _173  and  _174
REMARK   72  A    between atoms: _173  and  _176
REMARK   73  A    between atoms: _176  and  _177
REMARK   74  A    between atoms: _177  and  _178
REMARK   75  A    between atoms: _178  and  _179
REMARK   76  A    between atoms: _179  and  _180
REMARK   77  A    between atoms: _184  and  _186
REMARK   78  A    between atoms: _186  and  _187
REMARK   79  A    between atoms: _186  and  _189
REMARK   80  A    between atoms: _189  and  _190
REMARK   81  A    between atoms: _193  and  _195
REMARK   82  A    between atoms: _195  and  _196
REMARK   83  A    between atoms: _195  and  _198
REMARK   84  A    between atoms: _200  and  _202
REMARK   85  A    between atoms: _202  and  _203
REMARK   86  A    between atoms: _202  and  _205
REMARK   87  A    between atoms: _205  and  _206
REMARK   88  A    between atoms: _212  and  _214
REMARK   89  A    between atoms: _214  and  _215
REMARK   90  A    between atoms: _214  and  _217
REMARK   91  A    between atoms: _217  and  _218
REMARK   92  A    between atoms: _223  and  _225
REMARK   93  A    between atoms: _225  and  _226
REMARK   94  A    between atoms: _225  and  _228
REMARK   95  A    between atoms: _228  and  _229
REMARK   96  A    between atoms: _231  and  _233
REMARK   97  A    between atoms: _233  and  _234
REMARK   98  A    between atoms: _233  and  _236
REMARK   99  A    between atoms: _236  and  _237
REMARK  100  A    between atoms: _240  and  _242
REMARK  101  A    between atoms: _242  and  _243
REMARK  102  A    between atoms: _242  and  _245
REMARK  103  A    between atoms: _245  and  _246
REMARK  104  A    between atoms: _249  and  _251
REMARK  105  A    between atoms: _251  and  _252
REMARK  106  A    between atoms: _251  and  _254
REMARK  107  A    between atoms: _254  and  _255
REMARK  108  A    between atoms: _258  and  _260
REMARK  109  A    between atoms: _260  and  _261
REMARK  110  A    between atoms: _260  and  _263
REMARK  111  A    between atoms: _263  and  _264
REMARK  112  A    between atoms: _269  and  _270
REMARK  113  A    between atoms: _272  and  _274
REMARK  114  A    between atoms: _274  and  _275
REMARK  115  A    between atoms: _274  and  _277
REMARK  116  A    between atoms: _277  and  _278
REMARK  117  A    between atoms: _283  and  _285
REMARK  118  A    between atoms: _285  and  _286
REMARK  119  A    between atoms: _288  and  _290
REMARK  120  A    between atoms: _290  and  _291
REMARK  121  A    between atoms: _290  and  _293
REMARK  122  A    between atoms: _293  and  _294
REMARK  123  A    between atoms: _299  and  _301
REMARK  124  A    between atoms: _301  and  _302
REMARK  125  A    between atoms: _301  and  _304
REMARK  126  A    between atoms: _307  and  _309
REMARK  127  A    between atoms: _309  and  _310
REMARK  128  A    between atoms: _309  and  _312
REMARK  129  A    between atoms: _312  and  _313
REMARK  130  A    between atoms: _316  and  _318
REMARK  131  A    between atoms: _318  and  _319
REMARK  132  A    between atoms: _318  and  _321
REMARK  133  A    between atoms: _321  and  _322
REMARK  134  A    between atoms: _325  and  _327
REMARK  135  A    between atoms: _327  and  _328
REMARK  136  A    between atoms: _327  and  _330
REMARK  137  A    between atoms: _330  and  _331
REMARK  138  A    between atoms: _334  and  _336
REMARK  139  A    between atoms: _336  and  _337
REMARK  140  A    between atoms: _336  and  _339
REMARK  141  A    between atoms: _339  and  _340
REMARK                            x       y       z     vdW  Elec       q    Type
REMARK                         _______ _______ _______ _____ _____    ______ ____
ROOT
ATOM      1  C   MET A   5       4.738  39.977  19.395  0.00  0.00    +0.241 C 
ATOM      2  O   MET A   5       4.248  39.053  20.071  0.00  0.00    -0.273 OA
ATOM      3  N   CYS A   6       4.586  41.265  19.676  0.00  0.00    -0.296 N 
ATOM      4  H   CYS A   6       5.161  41.976  19.181  0.00  0.00    +0.150 HD
ENDROOT
BRANCH   3   5
ATOM      5  CA  CYS A   6       3.598  41.690  20.693  0.00  0.00    +0.160 C 
BRANCH   5   6
ATOM      6  C   CYS A   6       2.184  41.360  20.113  0.00  0.00    +0.242 C 
ATOM      7  N   LYS A   7       1.124  41.458  20.949  0.00  0.00    -0.297 N 
ATOM      8  H   LYS A   7       1.255  41.793  21.925  0.00  0.00    +0.150 HD
ATOM      9  O   CYS A   6       2.045  40.972  18.929  0.00  0.00    -0.273 OA
BRANCH   7  10
ATOM     10  CA  LYS A   7      -0.207  41.089  20.467  0.00  0.00    +0.149 C 
BRANCH  10  11
ATOM     11  C   LYS A   7      -0.722  42.050  19.359  0.00  0.00    +0.241 C 
ATOM     12  N   THR A   8      -0.443  43.332  19.529  0.00  0.00    -0.295 N 
ATOM     13  H   THR A   8       0.138  43.624  20.341  0.00  0.00    +0.150 HD
ATOM     14  O   LYS A   7      -1.321  41.618  18.366  0.00  0.00    -0.273 OA
BRANCH  12  15
ATOM     15  CA  THR A   8      -0.935  44.345  18.599  0.00  0.00    +0.176 C 
BRANCH  15  16
ATOM     16  C   THR A   8      -0.344  44.037  17.218  0.00  0.00    +0.243 C 
ATOM     17  N   CYS A   9       0.975  43.769  17.170  0.00  0.00    -0.296 N 
ATOM     18  H   CYS A   9       1.546  43.738  18.039  0.00  0.00    +0.150 HD
ATOM     19  O   THR A   8      -1.053  44.016  16.221  0.00  0.00    -0.273 OA
BRANCH  17  20
ATOM     20  CA  CYS A   9       1.601  43.515  15.824  0.00  0.00    +0.160 C 
BRANCH  20  21
ATOM     21  C   CYS A   9       1.107  42.186  15.274  0.00  0.00    +0.242 C 
ATOM     22  N   PHE A  10       0.946  41.169  16.136  0.00  0.00    -0.297 N 
ATOM     23  H   PHE A  10       1.170  41.293  17.144  0.00  0.00    +0.150 HD
ATOM     24  O   CYS A   9       0.899  42.045  14.074  0.00  0.00    -0.273 OA
BRANCH  22  25
ATOM     25  CA  PHE A  10       0.450  39.881  15.640  0.00  0.00    +0.153 C 
BRANCH  25  26
ATOM     26  C   PHE A  10      -0.969  40.029  15.045  0.00  0.00    +0.241 C 
ATOM     27  N   ASN A  11      -1.861  40.660  15.799  0.00  0.00    -0.298 N 
ATOM     28  H   ASN A  11      -1.602  41.010  16.743  0.00  0.00    +0.150 HD
ATOM     29  O   PHE A  10      -1.245  39.566  13.925  0.00  0.00    -0.273 OA
BRANCH  27  30
ATOM     30  CA  ASN A  11      -3.228  40.856  15.274  0.00  0.00    +0.146 C 
BRANCH  30  31
ATOM     31  C   ASN A  11      -3.201  41.642  13.940  0.00  0.00    +0.227 C 
ATOM     32  O   ASN A  11      -3.893  41.297  12.990  0.00  0.00    -0.286 OA
ENDBRANCH  30  31
BRANCH  30  33
ATOM     33  CB  ASN A  11      -4.089  41.594  16.279  0.00  0.00    +0.112 C 
BRANCH  33  34
ATOM     34  CG  ASN A  11      -4.477  40.689  17.471  0.00  0.00    +0.222 C 
ATOM     35  ND2 ASN A  11      -4.875  41.319  18.599  0.00  0.00    -0.329 N 
ATOM     36 HD21 ASN A  11      -5.149  40.765  19.435  0.00  0.00    +0.145 HD
ATOM     37 HD22 ASN A  11      -4.907  42.358  18.631  0.00  0.00    +0.145 HD
ATOM     38  OD1 ASN A  11      -4.413  39.426  17.358  0.00  0.00    -0.275 OA
ENDBRANCH  33  34
ENDBRANCH  30  33
ENDBRANCH  27  30
ENDBRANCH  25  26
BRANCH  25  39
ATOM     39  CB  PHE A  10       0.435  38.838  16.754  0.00  0.00    +0.055 C 
BRANCH  39  40
ATOM     40  CG  PHE A  10      -0.188  37.553  16.316  0.00  0.00    -0.020 A 
ATOM     41  CD2 PHE A  10      -1.430  37.175  16.827  0.00  0.00    -0.004 A 
ATOM     42  CE2 PHE A  10      -2.030  35.918  16.401  0.00  0.00    -0.000 A 
ATOM     43  CZ  PHE A  10      -1.391  35.134  15.447  0.00  0.00    -0.000 A 
ATOM     44  CE1 PHE A  10      -0.130  35.538  14.912  0.00  0.00    -0.000 A 
ATOM     45  CD1 PHE A  10       0.439  36.749  15.346  0.00  0.00    -0.004 A 
ENDBRANCH  39  40
ENDBRANCH  25  39
ENDBRANCH  22  25
ENDBRANCH  20  21
BRANCH  20  46
ATOM     46  CB  CYS A   9       3.133  43.515  15.910  0.00  0.00    +0.098 C 
ATOM     47  SG  CYS A   9       3.748  45.220  16.133  0.00  0.00    -0.080 S 
ENDBRANCH  20  46
ENDBRANCH  17  20
ENDBRANCH  15  16
BRANCH  15  48
ATOM     48  CB  THR A   8      -0.449  45.747  19.041  0.00  0.00    +0.137 C 
ATOM     49  CG2 THR A   8      -1.028  46.797  18.050  0.00  0.00    +0.034 C 
BRANCH  48  50
ATOM     50  OG1 THR A   8      -1.013  46.032  20.331  0.00  0.00    -0.382 OA
ATOM     51  HG1 THR A   8      -0.713  46.926  20.631  0.00  0.00    +0.210 HD
ENDBRANCH  48  50
ENDBRANCH  15  48
ENDBRANCH  12  15
ENDBRANCH  10  11
BRANCH  10  52
ATOM     52  CB  LYS A   7      -1.204  41.025  21.637  0.00  0.00    +0.029 C 
BRANCH  52  53
ATOM     53  CG  LYS A   7      -2.497  40.343  21.214  0.00  0.00    +0.000 C 
BRANCH  53  54
ATOM     54  CD  LYS A   7      -2.242  38.802  21.242  0.00  0.00    -0.024 C 
BRANCH  54  55
ATOM     55  CE  LYS A   7      -3.452  38.048  20.960  0.00  0.00    -0.086 C 
BRANCH  55  56
ATOM     56  NZ  LYS A   7      -3.194  36.589  20.779  0.00  0.00    +0.380 N 
ATOM     57  HZ1 LYS A   7      -2.773  36.202  21.648  0.00  0.00    -0.089 HD
ATOM     58  HZ2 LYS A   7      -4.091  36.102  20.581  0.00  0.00    -0.089 HD
ATOM     59  HZ3 LYS A   7      -2.539  36.450  19.983  0.00  0.00    -0.089 HD
ENDBRANCH  55  56
ENDBRANCH  54  55
ENDBRANCH  53  54
ENDBRANCH  52  53
ENDBRANCH  10  52
ENDBRANCH   7  10
ENDBRANCH   5   6
BRANCH   5  60
ATOM     60  CB  CYS A   6       3.730  43.206  20.992  0.00  0.00    +0.098 C 
ATOM     61  SG  CYS A   6       3.207  44.271  19.592  0.00  0.00    -0.080 S 
ENDBRANCH   5  60
ENDBRANCH   3   5
BRANCH   1  62
ATOM     62  CA  MET A   5       5.566  39.706  18.131  0.00  0.00    +0.149 C 
BRANCH  62  65
ATOM     63  C   ASN A   4       7.447  38.098  18.133  0.00  0.00    +0.241 C 
ATOM     64  O   ASN A   4       8.287  38.992  18.187  0.00  0.00    -0.273 OA
ATOM     65  N   MET A   5       6.118  38.326  18.141  0.00  0.00    -0.297 N 
ATOM     66  H   MET A   5       5.464  37.517  18.154  0.00  0.00    +0.150 HD
BRANCH  63  67
ATOM     67  CA  ASN A   4       7.913  36.629  18.060  0.00  0.00    +0.158 C 
BRANCH  67  70
ATOM     68  C   TYR A   3       6.855  35.607  19.942  0.00  0.00    +0.241 C 
ATOM     69  O   TYR A   3       7.419  36.453  20.670  0.00  0.00    -0.273 OA
ATOM     70  N   ASN A   4       6.972  35.666  18.612  0.00  0.00    -0.297 N 
ATOM     71  H   ASN A   4       6.411  35.046  17.994  0.00  0.00    +0.150 HD
BRANCH  68  72
ATOM     72  CA  TYR A   3       5.972  34.527  20.513  0.00  0.00    +0.153 C 
BRANCH  72  74
ATOM     73  C   ILE A   2       7.391  33.661  22.275  0.00  0.00    +0.241 C 
ATOM     74  N   TYR A   3       6.284  34.311  21.956  0.00  0.00    -0.297 N 
ATOM     75  H   TYR A   3       5.644  34.664  22.696  0.00  0.00    +0.150 HD
ATOM     76  O   ILE A   2       8.160  33.163  21.435  0.00  0.00    -0.273 OA
BRANCH  73  77
ATOM     77  CA  ILE A   2       7.645  33.476  23.769  0.00  0.00    +0.148 C 
BRANCH  77  80
ATOM     78  C   ARG A   1       6.407  31.600  24.653  0.00  0.00    +0.238 C 
ATOM     79  O   ARG A   1       5.489  32.325  25.083  0.00  0.00    -0.274 OA
ATOM     80  N   ILE A   2       7.515  32.063  24.080  0.00  0.00    -0.297 N 
ATOM     81  H   ILE A   2       8.292  31.410  23.854  0.00  0.00    +0.150 HD
BRANCH  78  82
ATOM     82  CA  ARG A   1       6.308  30.067  24.803  0.00  0.00    +0.145 C 
BRANCH  82  83
ATOM     83  N   ARG A   1       6.262  29.790  26.239  0.00  0.00    -0.238 NA
ATOM     84  H   ARG A   1       5.355  29.848  26.745  0.00  0.00    +0.142 HD
ENDBRANCH  82  83
BRANCH  82  85
ATOM     85  CB  ARG A   1       4.989  29.586  24.131  0.00  0.00    +0.030 C 
BRANCH  85  86
ATOM     86  CG  ARG A   1       5.000  29.901  22.654  0.00  0.00    +0.045 C 
BRANCH  86  87
ATOM     87  CD  ARG A   1       3.968  29.028  21.932  0.00  0.00    +0.174 C 
BRANCH  87  88
ATOM     88  NE  ARG A   1       4.502  27.680  21.826  0.00  0.00    -0.265 N 
ATOM     89  HE  ARG A   1       5.443  27.498  22.231  0.00  0.00    +0.259 HD
ATOM     90  CZ  ARG A   1       3.873  26.670  21.250  0.00  0.00    +0.342 C 
ATOM     91  NH2 ARG A   1       4.484  25.471  21.176  0.00  0.00    -0.292 N 
ATOM     92 HH21 ARG A   1       5.439  25.349  21.569  0.00  0.00    +0.255 HD
ATOM     93 HH22 ARG A   1       4.001  24.668  20.726  0.00  0.00    +0.255 HD
ATOM     94  NH1 ARG A   1       2.658  26.864  20.718  0.00  0.00    -0.292 N 
ATOM     95 HH11 ARG A   1       2.216  27.805  20.760  0.00  0.00    +0.255 HD
ATOM     96 HH12 ARG A   1       2.157  26.074  20.263  0.00  0.00    +0.255 HD
ENDBRANCH  87  88
ENDBRANCH  86  87
ENDBRANCH  85  86
ENDBRANCH  82  85
ENDBRANCH  78  82
ENDBRANCH  77  80
BRANCH  77  97
ATOM     97  CB  ILE A   2       9.035  34.034  24.167  0.00  0.00    +0.027 C 
ATOM     98  CG2 ILE A   2       9.103  35.528  23.798  0.00  0.00    +0.002 C 
BRANCH  97  99
ATOM     99  CG1 ILE A   2       9.235  33.895  25.694  0.00  0.00    +0.002 C 
ATOM    100  CD1 ILE A   2      10.671  34.342  26.099  0.00  0.00    +0.000 C 
ENDBRANCH  97  99
ENDBRANCH  77  97
ENDBRANCH  73  77
ENDBRANCH  72  74
BRANCH  72 101
ATOM    101  CB  TYR A   3       4.514  34.964  20.369  0.00  0.00    +0.055 C 
BRANCH 101 102
ATOM    102  CG  TYR A   3       3.550  33.883  20.768  0.00  0.00    -0.020 A 
ATOM    103  CD2 TYR A   3       2.837  34.007  21.964  0.00  0.00    -0.001 A 
ATOM    104  CE2 TYR A   3       1.889  33.072  22.333  0.00  0.00    +0.036 A 
ATOM    105  CZ  TYR A   3       1.712  31.904  21.521  0.00  0.00    +0.134 A 
ATOM    106  CE1 TYR A   3       2.395  31.762  20.312  0.00  0.00    +0.036 A 
ATOM    107  CD1 TYR A   3       3.339  32.735  19.943  0.00  0.00    -0.001 A 
BRANCH 105 108
ATOM    108  OH  TYR A   3       0.781  31.011  21.912  0.00  0.00    -0.506 OA
ATOM    109  HH  TYR A   3       0.759  30.257  21.271  0.00  0.00    +0.292 HD
ENDBRANCH 105 108
ENDBRANCH 101 102
ENDBRANCH  72 101
ENDBRANCH  68  72
ENDBRANCH  67  70
BRANCH  67 110
ATOM    110  CB  ASN A   4       8.228  36.282  16.592  0.00  0.00    +0.114 C 
BRANCH 110 111
ATOM    111  CG  ASN A   4       8.917  34.948  16.457  0.00  0.00    +0.222 C 
ATOM    112  OD1 ASN A   4       9.495  34.438  17.414  0.00  0.00    -0.275 OA
ATOM    113  ND2 ASN A   4       8.827  34.355  15.258  0.00  0.00    -0.329 N 
ATOM    114 HD21 ASN A   4       9.258  33.421  15.106  0.00  0.00    +0.145 HD
ATOM    115 HD22 ASN A   4       8.326  34.829  14.480  0.00  0.00    +0.145 HD
ENDBRANCH 110 111
ENDBRANCH  67 110
ENDBRANCH  63  67
ENDBRANCH  62  65
BRANCH  62 116
ATOM    116  CB  MET A   5       4.654  39.941  16.890  0.00  0.00    +0.041 C 
BRANCH 116 117
ATOM    117  CG  MET A   5       5.462  40.047  15.622  0.00  0.00    +0.060 C 
BRANCH 117 118
ATOM    118  SD  MET A   5       4.376  40.321  14.174  0.00  0.00    -0.139 S 
ATOM    119  CE  MET A   5       3.785  38.629  13.989  0.00  0.00    +0.069 C 
ENDBRANCH 117 118
ENDBRANCH 116 117
ENDBRANCH  62 116
ENDBRANCH   1  62
TORSDOF 49
REMARK  Name = ../refined-set-2016/2p09/2p09_pocket.pdb
REMARK  141 active torsions:
REMARK  status: ('A' for Active; 'I' for Inactive)
REMARK    1  A    between atoms: _1  and  _3
REMARK    2  A    between atoms: _3  and  _4
REMARK    3  A    between atoms: _3  and  _6
REMARK    4  A    between atoms: _8  and  _10
REMARK    5  A    between atoms: _10  and  _11
REMARK    6  A    between atoms: _10  and  _13
REMARK    7  A    between atoms: _16  and  _18
REMARK    8  A    between atoms: _18  and  _19
REMARK    9  A    between atoms: _18  and  _21
REMARK   10  A    between atoms: _21  and  _22
REMARK   11  A    between atoms: _22  and  _23
REMARK   12  A    between atoms: _23  and  _24
REMARK   13  A    between atoms: _24  and  _25
REMARK   14  A    between atoms: _30  and  _31
REMARK   15  A    between atoms: _36  and  _38
REMARK   16  A    between atoms: _38  and  _39
REMARK   17  A    between atoms: _38  and  _41
REMARK   18  A    between atoms: _41  and  _42
REMARK   19  A    between atoms: _42  and  _43
REMARK   20  A    between atoms: _43  and  _44
REMARK   21  A    between atoms: _53  and  _55
REMARK   22  A    between atoms: _55  and  _56
REMARK   23  A    between atoms: _55  and  _58
REMARK   24  A    between atoms: _58  and  _59
REMARK   25  A    between atoms: _62  and  _64
REMARK   26  A    between atoms: _64  and  _65
REMARK   27  A    between atoms: _64  and  _67
REMARK   28  A    between atoms: _67  and  _68
REMARK   29  A    between atoms: _78  and  _80
REMARK   30  A    between atoms: _80  and  _81
REMARK   31  A    between atoms: _80  and  _83
REMARK   32  A    between atoms: _83  and  _84
REMARK   33  A    between atoms: _84  and  _85
REMARK   34  A    between atoms: _85  and  _86
REMARK   35  A    between atoms: _86  and  _87
REMARK   36  A    between atoms: _91  and  _93
REMARK   37  A    between atoms: _93  and  _94
REMARK   38  A    between atoms: _93  and  _96
REMARK   39  A    between atoms: _96  and  _97
REMARK   40  A    between atoms: _97  and  _98
REMARK   41  A    between atoms: _98  and  _99
REMARK   42  A    between atoms: _99  and  _100
REMARK   43  A    between atoms: _104  and  _106
REMARK   44  A    between atoms: _106  and  _107
REMARK   45  A    between atoms: _106  and  _109
REMARK   46  A    between atoms: _109  and  _110
REMARK   47  A    between atoms: _110  and  _111
REMARK   48  A    between atoms: _111  and  _112
REMARK   49  A    between atoms: _121  and  _123
REMARK   50  A    between atoms: _123  and  _124
REMARK   51  A    between atoms: _123  and  _126
REMARK   52  A    between atoms: _126  and  _127
REMARK   53  A    between atoms: _130  and  _132
REMARK   54  A    between atoms: _132  and  _133
REMARK   55  A    between atoms: _132  and  _135
REMARK   56  A    between atoms: _135  and  _136
REMARK   57  A    between atoms: _141  and  _142
REMARK   58  A    between atoms: _144  and  _146
REMARK   59  A    between atoms: _146  and  _147
REMARK   60  A    between atoms: _146  and  _149
REMARK   61  A    between atoms: _149  and  _150
REMARK   62  A    between atoms: _155  and  _157
REMARK   63  A    between atoms: _157  and  _158
REMARK   64  A    between atoms: _157  and  _160
REMARK   65  A    between atoms: _160  and  _161
REMARK   66  A    between atoms: _161  and  _162
REMARK   67  A    between atoms: _164  and  _166
REMARK   68  A    between atoms: _166  and  _167
REMARK   69  A    between atoms: _166  and  _169
REMARK   70  A    between atoms: _171  and  _173
REMARK   71  A    between atoms: _173  and  _174
REMARK   72  A    between atoms: _173  and  _176
REMARK   73  A    between atoms: _176  and  _177
REMARK   74  A    between atoms: _177  and  _178
REMARK   75  A    between atoms: _178  and  _179
REMARK   76  A    between atoms: _179  and  _180
REMARK   77  A    between atoms: _184  and  _186
REMARK   78  A    between atoms: _186  and  _187
REMARK   79  A    between atoms: _186  and  _189
REMARK   80  A    between atoms: _189  and  _190
REMARK   81  A    between atoms: _193  and  _195
REMARK   82  A    between atoms: _195  and  _196
REMARK   83  A    between atoms: _195  and  _198
REMARK   84  A    between atoms: _200  and  _202
REMARK   85  A    between atoms: _202  and  _203
REMARK   86  A    between atoms: _202  and  _205
REMARK   87  A    between atoms: _205  and  _206
REMARK   88  A    between atoms: _212  and  _214
REMARK   89  A    between atoms: _214  and  _215
REMARK   90  A    between atoms: _214  and  _217
REMARK   91  A    between atoms: _217  and  _218
REMARK   92  A    between atoms: _223  and  _225
REMARK   93  A    between atoms: _225  and  _226
REMARK   94  A    between atoms: _225  and  _228
REMARK   95  A    between atoms: _228  and  _229
REMARK   96  A    between atoms: _231  and  _233
REMARK   97  A    between atoms: _233  and  _234
REMARK   98  A    between atoms: _233  and  _236
REMARK   99  A    between atoms: _236  and  _237
REMARK  100  A    between atoms: _240  and  _242
REMARK  101  A    between atoms: _242  and  _243
REMARK  102  A    between atoms: _242  and  _245
REMARK  103  A    between atoms: _245  and  _246
REMARK  104  A    between atoms: _249  and  _251
REMARK  105  A    between atoms: _251  and  _252
REMARK  106  A    between atoms: _251  and  _254
REMARK  107  A    between atoms: _254  and  _255
REMARK  108  A    between atoms: _258  and  _260
REMARK  109  A    between atoms: _260  and  _261
REMARK  110  A    between atoms: _260  and  _263
REMARK  111  A    between atoms: _263  and  _264
REMARK  112  A    between atoms: _269  and  _270
REMARK  113  A    between atoms: _272  and  _274
REMARK  114  A    between atoms: _274  and  _275
REMARK  115  A    between atoms: _274  and  _277
REMARK  116  A    between atoms: _277  and  _278
REMARK  117  A    between atoms: _283  and  _285
REMARK  118  A    between atoms: _285  and  _286
REMARK  119  A    between atoms: _288  and  _290
REMARK  120  A    between atoms: _290  and  _291
REMARK  121  A    between atoms: _290  and  _293
REMARK  122  A    between atoms: _293  and  _294
REMARK  123  A    between atoms: _299  and  _301
REMARK  124  A    between atoms: _301  and  _302
REMARK  125  A    between atoms: _301  and  _304
REMARK  126  A    between atoms: _307  and  _309
REMARK  127  A    between atoms: _309  and  _310
REMARK  128  A    between atoms: _309  and  _312
REMARK  129  A    between atoms: _312  and  _313
REMARK  130  A    between atoms: _316  and  _318
REMARK  131  A    between atoms: _318  and  _319
REMARK  132  A    between atoms: _318  and  _321
REMARK  133  A    between atoms: _321  and  _322
REMARK  134  A    between atoms: _325  and  _327
REMARK  135  A    between atoms: _327  and  _328
REMARK  136  A    between atoms: _327  and  _330
REMARK  137  A    between atoms: _330  and  _331
REMARK  138  A    between atoms: _334  and  _336
REMARK  139  A    between atoms: _336  and  _337
REMARK  140  A    between atoms: _336  and  _339
REMARK  141  A    between atoms: _339  and  _340
REMARK                            x       y       z     vdW  Elec       q    Type
REMARK                         _______ _______ _______ _____ _____    ______ ____
ROOT
ATOM      1  C   SER A   1      -1.247  39.968  10.110  0.00  0.00    +0.241 C 
ATOM      2  N   ILE A   2      -2.242  39.556  10.904  0.00  0.00    -0.298 N 
ATOM      3  H   ILE A   2      -2.221  39.782  11.919  0.00  0.00    +0.150 HD
ATOM      4  O   SER A   1      -1.175  39.672   8.916  0.00  0.00    -0.274 OA
ENDROOT
BRANCH   1   5
ATOM      5  CA  SER A   1      -0.162  40.820  10.753  0.00  0.00    +0.174 C 
BRANCH   5   6
ATOM      6  N   SER A   1      -0.741  41.682  11.819  0.00  0.00    -0.236 NA
ATOM      7  H   SER A   1      -0.408  41.587  12.800  0.00  0.00    +0.142 HD
ENDBRANCH   5   6
BRANCH   5   8
ATOM      8  CB  SER A   1       0.955  39.922  11.300  0.00  0.00    +0.163 C 
BRANCH   8   9
ATOM      9  OG  SER A   1       0.445  38.844  12.062  0.00  0.00    -0.380 OA
ATOM     10  H   SER A   1      -0.070  39.199  12.829  0.00  0.00    +0.211 HD
ENDBRANCH   8   9
ENDBRANCH   5   8
ENDBRANCH   1   5
BRANCH   2  11
ATOM     11  CA  ILE A   2      -3.364  38.786  10.349  0.00  0.00    +0.137 C 
BRANCH  11  12
ATOM     12  CB  ILE A   2      -4.242  38.251  11.480  0.00  0.00    +0.026 C 
ATOM     13  CG2 ILE A   2      -5.483  37.511  10.876  0.00  0.00    +0.002 C 
BRANCH  12  14
ATOM     14  CG1 ILE A   2      -3.389  37.335  12.393  0.00  0.00    +0.002 C 
ATOM     15  CD1 ILE A   2      -2.783  36.191  11.684  0.00  0.00    +0.000 C 
ENDBRANCH  12  14
ENDBRANCH  11  12
BRANCH  11  16
ATOM     16  C   ILE A   2      -4.188  39.709   9.412  0.00  0.00    +0.227 C 
ATOM     17  O   ILE A   2      -4.514  39.311   8.279  0.00  0.00    -0.286 OA
ENDBRANCH  11  16
ENDBRANCH   2  11
TORSDOF 8
REMARK  Name = ../refined-set-2016/2p09/2p09_pocket.pdb
REMARK  141 active torsions:
REMARK  status: ('A' for Active; 'I' for Inactive)
REMARK    1  A    between atoms: _1  and  _3
REMARK    2  A    between atoms: _3  and  _4
REMARK    3  A    between atoms: _3  and  _6
REMARK    4  A    between atoms: _8  and  _10
REMARK    5  A    between atoms: _10  and  _11
REMARK    6  A    between atoms: _10  and  _13
REMARK    7  A    between atoms: _16  and  _18
REMARK    8  A    between atoms: _18  and  _19
REMARK    9  A    between atoms: _18  and  _21
REMARK   10  A    between atoms: _21  and  _22
REMARK   11  A    between atoms: _22  and  _23
REMARK   12  A    between atoms: _23  and  _24
REMARK   13  A    between atoms: _24  and  _25
REMARK   14  A    between atoms: _30  and  _31
REMARK   15  A    between atoms: _36  and  _38
REMARK   16  A    between atoms: _38  and  _39
REMARK   17  A    between atoms: _38  and  _41
REMARK   18  A    between atoms: _41  and  _42
REMARK   19  A    between atoms: _42  and  _43
REMARK   20  A    between atoms: _43  and  _44
REMARK   21  A    between atoms: _53  and  _55
REMARK   22  A    between atoms: _55  and  _56
REMARK   23  A    between atoms: _55  and  _58
REMARK   24  A    between atoms: _58  and  _59
REMARK   25  A    between atoms: _62  and  _64
REMARK   26  A    between atoms: _64  and  _65
REMARK   27  A    between atoms: _64  and  _67
REMARK   28  A    between atoms: _67  and  _68
REMARK   29  A    between atoms: _78  and  _80
REMARK   30  A    between atoms: _80  and  _81
REMARK   31  A    between atoms: _80  and  _83
REMARK   32  A    between atoms: _83  and  _84
REMARK   33  A    between atoms: _84  and  _85
REMARK   34  A    between atoms: _85  and  _86
REMARK   35  A    between atoms: _86  and  _87
REMARK   36  A    between atoms: _91  and  _93
REMARK   37  A    between atoms: _93  and  _94
REMARK   38  A    between atoms: _93  and  _96
REMARK   39  A    between atoms: _96  and  _97
REMARK   40  A    between atoms: _97  and  _98
REMARK   41  A    between atoms: _98  and  _99
REMARK   42  A    between atoms: _99  and  _100
REMARK   43  A    between atoms: _104  and  _106
REMARK   44  A    between atoms: _106  and  _107
REMARK   45  A    between atoms: _106  and  _109
REMARK   46  A    between atoms: _109  and  _110
REMARK   47  A    between atoms: _110  and  _111
REMARK   48  A    between atoms: _111  and  _112
REMARK   49  A    between atoms: _121  and  _123
REMARK   50  A    between atoms: _123  and  _124
REMARK   51  A    between atoms: _123  and  _126
REMARK   52  A    between atoms: _126  and  _127
REMARK   53  A    between atoms: _130  and  _132
REMARK   54  A    between atoms: _132  and  _133
REMARK   55  A    between atoms: _132  and  _135
REMARK   56  A    between atoms: _135  and  _136
REMARK   57  A    between atoms: _141  and  _142
REMARK   58  A    between atoms: _144  and  _146
REMARK   59  A    between atoms: _146  and  _147
REMARK   60  A    between atoms: _146  and  _149
REMARK   61  A    between atoms: _149  and  _150
REMARK   62  A    between atoms: _155  and  _157
REMARK   63  A    between atoms: _157  and  _158
REMARK   64  A    between atoms: _157  and  _160
REMARK   65  A    between atoms: _160  and  _161
REMARK   66  A    between atoms: _161  and  _162
REMARK   67  A    between atoms: _164  and  _166
REMARK   68  A    between atoms: _166  and  _167
REMARK   69  A    between atoms: _166  and  _169
REMARK   70  A    between atoms: _171  and  _173
REMARK   71  A    between atoms: _173  and  _174
REMARK   72  A    between atoms: _173  and  _176
REMARK   73  A    between atoms: _176  and  _177
REMARK   74  A    between atoms: _177  and  _178
REMARK   75  A    between atoms: _178  and  _179
REMARK   76  A    between atoms: _179  and  _180
REMARK   77  A    between atoms: _184  and  _186
REMARK   78  A    between atoms: _186  and  _187
REMARK   79  A    between atoms: _186  and  _189
REMARK   80  A    between atoms: _189  and  _190
REMARK   81  A    between atoms: _193  and  _195
REMARK   82  A    between atoms: _195  and  _196
REMARK   83  A    between atoms: _195  and  _198
REMARK   84  A    between atoms: _200  and  _202
REMARK   85  A    between atoms: _202  and  _203
REMARK   86  A    between atoms: _202  and  _205
REMARK   87  A    between atoms: _205  and  _206
REMARK   88  A    between atoms: _212  and  _214
REMARK   89  A    between atoms: _214  and  _215
REMARK   90  A    between atoms: _214  and  _217
REMARK   91  A    between atoms: _217  and  _218
REMARK   92  A    between atoms: _223  and  _225
REMARK   93  A    between atoms: _225  and  _226
REMARK   94  A    between atoms: _225  and  _228
REMARK   95  A    between atoms: _228  and  _229
REMARK   96  A    between atoms: _231  and  _233
REMARK   97  A    between atoms: _233  and  _234
REMARK   98  A    between atoms: _233  and  _236
REMARK   99  A    between atoms: _236  and  _237
REMARK  100  A    between atoms: _240  and  _242
REMARK  101  A    between atoms: _242  and  _243
REMARK  102  A    between atoms: _242  and  _245
REMARK  103  A    between atoms: _245  and  _246
REMARK  104  A    between atoms: _249  and  _251
REMARK  105  A    between atoms: _251  and  _252
REMARK  106  A    between atoms: _251  and  _254
REMARK  107  A    between atoms: _254  and  _255
REMARK  108  A    between atoms: _258  and  _260
REMARK  109  A    between atoms: _260  and  _261
REMARK  110  A    between atoms: _260  and  _263
REMARK  111  A    between atoms: _263  and  _264
REMARK  112  A    between atoms: _269  and  _270
REMARK  113  A    between atoms: _272  and  _274
REMARK  114  A    between atoms: _274  and  _275
REMARK  115  A    between atoms: _274  and  _277
REMARK  116  A    between atoms: _277  and  _278
REMARK  117  A    between atoms: _283  and  _285
REMARK  118  A    between atoms: _285  and  _286
REMARK  119  A    between atoms: _288  and  _290
REMARK  120  A    between atoms: _290  and  _291
REMARK  121  A    between atoms: _290  and  _293
REMARK  122  A    between atoms: _293  and  _294
REMARK  123  A    between atoms: _299  and  _301
REMARK  124  A    between atoms: _301  and  _302
REMARK  125  A    between atoms: _301  and  _304
REMARK  126  A    between atoms: _307  and  _309
REMARK  127  A    between atoms: _309  and  _310
REMARK  128  A    between atoms: _309  and  _312
REMARK  129  A    between atoms: _312  and  _313
REMARK  130  A    between atoms: _316  and  _318
REMARK  131  A    between atoms: _318  and  _319
REMARK  132  A    between atoms: _318  and  _321
REMARK  133  A    between atoms: _321  and  _322
REMARK  134  A    between atoms: _325  and  _327
REMARK  135  A    between atoms: _327  and  _328
REMARK  136  A    between atoms: _327  and  _330
REMARK  137  A    between atoms: _330  and  _331
REMARK  138  A    between atoms: _334  and  _336
REMARK  139  A    between atoms: _336  and  _337
REMARK  140  A    between atoms: _336  and  _339
REMARK  141  A    between atoms: _339  and  _340
REMARK                            x       y       z     vdW  Elec       q    Type
REMARK                         _______ _______ _______ _____ _____    ______ ____
ROOT
ATOM      1  CA  HIS A   4       4.805  34.446  12.862  0.00  0.00    +0.155 C 
ENDROOT
BRANCH   1   4
ATOM      2  C   TYR A   3       6.352  36.280  12.508  0.00  0.00    +0.241 C 
ATOM      3  O   TYR A   3       6.637  36.279  13.726  0.00  0.00    -0.273 OA
ATOM      4  N   HIS A   4       5.447  35.448  12.003  0.00  0.00    -0.297 N 
ATOM      5  H   HIS A   4       5.193  35.507  10.996  0.00  0.00    +0.150 HD
BRANCH   2   6
ATOM      6  CA  TYR A   3       7.040  37.249  11.557  0.00  0.00    +0.153 C 
BRANCH   6   8
ATOM      7  C   THR A   2       7.185  36.456   9.247  0.00  0.00    +0.243 C 
ATOM      8  N   TYR A   3       6.543  37.206  10.141  0.00  0.00    -0.297 N 
ATOM      9  H   TYR A   3       5.706  37.756   9.861  0.00  0.00    +0.150 HD
ATOM     10  O   THR A   2       8.127  35.670   9.498  0.00  0.00    -0.273 OA
BRANCH   7  11
ATOM     11  CA  THR A   2       6.660  36.591   7.811  0.00  0.00    +0.176 C 
BRANCH  11  14
ATOM     12  C   ASP A   1       4.480  35.566   8.349  0.00  0.00    +0.239 C 
ATOM     13  O   ASP A   1       4.996  34.671   9.081  0.00  0.00    -0.274 OA
ATOM     14  N   THR A   2       5.182  36.549   7.800  0.00  0.00    -0.295 N 
ATOM     15  H   THR A   2       4.668  37.327   7.340  0.00  0.00    +0.150 HD
BRANCH  12  16
ATOM     16  CA  ASP A   1       2.967  35.600   8.095  0.00  0.00    +0.156 C 
BRANCH  16  17
ATOM     17  N   ASP A   1       2.544  36.604   7.113  0.00  0.00    -0.238 NA
ATOM     18  H   ASP A   1       2.613  36.397   6.096  0.00  0.00    +0.142 HD
ENDBRANCH  16  17
BRANCH  16  19
ATOM     19  CB  ASP A   1       2.444  34.202   7.757  0.00  0.00    +0.140 C 
BRANCH  19  20
ATOM     20  CG  ASP A   1       3.063  33.631   6.513  0.00  0.00    +0.367 C 
ATOM     21  OD2 ASP A   1       2.645  32.483   6.163  0.00  0.00    -0.246 OA
ATOM     22  OD1 ASP A   1       3.973  34.240   5.938  0.00  0.00    -0.246 OA
ENDBRANCH  19  20
ENDBRANCH  16  19
ENDBRANCH  12  16
ENDBRANCH  11  14
BRANCH  11  23
ATOM     23  CB  THR A   2       7.191  37.873   7.179  0.00  0.00    +0.137 C 
ATOM     24  CG2 THR A   2       8.730  37.971   7.342  0.00  0.00    +0.034 C 
BRANCH  23  25
ATOM     25  OG1 THR A   2       6.873  37.855   5.764  0.00  0.00    -0.382 OA
ATOM     26  HG1 THR A   2       5.891  37.802   5.648  0.00  0.00    +0.210 HD
ENDBRANCH  23  25
ENDBRANCH  11  23
ENDBRANCH   7  11
ENDBRANCH   6   8
BRANCH   6  27
ATOM     27  CB  TYR A   3       7.023  38.705  12.064  0.00  0.00    +0.055 C 
BRANCH  27  28
ATOM     28  CG  TYR A   3       7.910  39.568  11.200  0.00  0.00    -0.020 A 
ATOM     29  CD2 TYR A   3       9.323  39.450  11.265  0.00  0.00    -0.001 A 
ATOM     30  CE2 TYR A   3      10.144  40.208  10.435  0.00  0.00    +0.036 A 
ATOM     31  CZ  TYR A   3       9.558  41.060   9.472  0.00  0.00    +0.134 A 
ATOM     32  CE1 TYR A   3       8.167  41.152   9.347  0.00  0.00    +0.036 A 
ATOM     33  CD1 TYR A   3       7.352  40.385  10.225  0.00  0.00    -0.001 A 
BRANCH  31  34
ATOM     34  OH  TYR A   3      10.339  41.800   8.589  0.00  0.00    -0.506 OA
ATOM     35  HH  TYR A   3      11.296  41.644   8.787  0.00  0.00    +0.292 HD
ENDBRANCH  31  34
ENDBRANCH  27  28
ENDBRANCH   6  27
ENDBRANCH   2   6
ENDBRANCH   1   4
BRANCH   1  36
ATOM     36  C   HIS A   4       5.841  33.467  13.401  0.00  0.00    +0.241 C 
ATOM     37  N   GLY A   5       5.682  33.085  14.664  0.00  0.00    -0.295 N 
ATOM     38  H   GLY A   5       4.950  33.514  15.266  0.00  0.00    +0.150 HD
ATOM     39  O   HIS A   4       6.774  33.053  12.671  0.00  0.00    -0.273 OA
BRANCH  37  40
ATOM     40  CA  GLY A   5       6.571  32.038  15.184  0.00  0.00    +0.176 C 
BRANCH  40  41
ATOM     41  C   GLY A   5       6.747  32.267  16.686  0.00  0.00    +0.243 C 
ATOM     42  N   HIS A   6       7.552  31.400  17.290  0.00  0.00    -0.297 N 
ATOM     43  H   HIS A   6       8.047  30.673  16.735  0.00  0.00    +0.150 HD
ATOM     44  O   GLY A   5       6.219  33.224  17.267  0.00  0.00    -0.273 OA
BRANCH  42  45
ATOM     45  CA  HIS A   6       7.742  31.472  18.753  0.00  0.00    +0.155 C 
BRANCH  45  46
ATOM     46  C   HIS A   6       8.943  30.600  19.072  0.00  0.00    +0.241 C 
ATOM     47  N   VAL A   7       9.399  30.754  20.332  0.00  0.00    -0.297 N 
ATOM     48  H   VAL A   7       8.973  31.487  20.934  0.00  0.00    +0.150 HD
ATOM     49  O   HIS A   6       9.424  29.803  18.241  0.00  0.00    -0.273 OA
BRANCH  47  50
ATOM     50  CA  VAL A   7      10.481  29.918  20.884  0.00  0.00    +0.149 C 
BRANCH  50  51
ATOM     51  C   VAL A   7       9.984  29.481  22.254  0.00  0.00    +0.241 C 
ATOM     52  O   VAL A   7       9.555  30.344  23.069  0.00  0.00    -0.273 OA
ATOM     53  N   ASP A   8      10.048  28.161  22.479  0.00  0.00    -0.298 N 
ATOM     54  H   ASP A   8      10.411  27.540  21.728  0.00  0.00    +0.150 HD
BRANCH  53  55
ATOM     55  CA  ASP A   8       9.622  27.563  23.752  0.00  0.00    +0.148 C 
BRANCH  55  56
ATOM     56  C   ASP A   8      10.838  27.322  24.632  0.00  0.00    +0.227 C 
ATOM     57  O   ASP A   8      11.894  26.874  24.146  0.00  0.00    -0.286 OA
ENDBRANCH  55  56
BRANCH  55  58
ATOM     58  CB  ASP A   8       8.976  26.193  23.522  0.00  0.00    +0.142 C 
BRANCH  58  59
ATOM     59  CG  ASP A   8       7.603  26.290  22.838  0.00  0.00    +0.367 C 
ATOM     60  OD2 ASP A   8       7.034  27.410  22.814  0.00  0.00    -0.246 OA
ATOM     61  OD1 ASP A   8       7.110  25.240  22.358  0.00  0.00    -0.246 OA
ENDBRANCH  58  59
ENDBRANCH  55  58
ENDBRANCH  53  55
ENDBRANCH  50  51
BRANCH  50  62
ATOM     62  CB  VAL A   7      11.772  30.693  21.043  0.00  0.00    +0.027 C 
ATOM     63  CG2 VAL A   7      12.889  29.814  21.677  0.00  0.00    +0.002 C 
ATOM     64  CG1 VAL A   7      12.290  31.208  19.646  0.00  0.00    +0.002 C 
ENDBRANCH  50  62
ENDBRANCH  47  50
ENDBRANCH  45  46
BRANCH  45  65
ATOM     65  CB  HIS A   6       6.545  30.909  19.506  0.00  0.00    +0.076 C 
BRANCH  65  66
ATOM     66  CG  HIS A   6       6.169  29.508  19.097  0.00  0.00    +0.082 A 
ATOM     67  CD2 HIS A   6       6.641  28.297  19.485  0.00  0.00    +0.115 A 
ATOM     68  NE2 HIS A   6       5.946  27.339  18.765  0.00  0.00    -0.221 NA
ATOM     69  CE1 HIS A   6       5.089  27.945  17.956  0.00  0.00    +0.199 A 
ATOM     70  ND1 HIS A   6       5.205  29.255  18.125  0.00  0.00    -0.227 NA
ENDBRANCH  65  66
ENDBRANCH  45  65
ENDBRANCH  42  45
ENDBRANCH  40  41
ENDBRANCH  37  40
ENDBRANCH   1  36
BRANCH   1  71
ATOM     71  CB  HIS A   4       3.738  33.717  12.079  0.00  0.00    +0.076 C 
BRANCH  71  72
ATOM     72  CG  HIS A   4       2.560  34.573  11.749  0.00  0.00    +0.082 A 
ATOM     73  CD2 HIS A   4       2.320  35.906  11.893  0.00  0.00    +0.115 A 
ATOM     74  NE2 HIS A   4       1.031  36.135  11.446  0.00  0.00    -0.221 NA
ATOM     75  CE1 HIS A   4       0.502  34.989  11.067  0.00  0.00    +0.199 A 
ATOM     76  ND1 HIS A   4       1.395  34.024  11.255  0.00  0.00    -0.227 NA
ENDBRANCH  71  72
ENDBRANCH   1  71
TORSDOF 30
REMARK  Name = ../refined-set-2016/2p09/2p09_pocket.pdb
REMARK  141 active torsions:
REMARK  status: ('A' for Active; 'I' for Inactive)
REMARK    1  A    between atoms: _1  and  _3
REMARK    2  A    between atoms: _3  and  _4
REMARK    3  A    between atoms: _3  and  _6
REMARK    4  A    between atoms: _8  and  _10
REMARK    5  A    between atoms: _10  and  _11
REMARK    6  A    between atoms: _10  and  _13
REMARK    7  A    between atoms: _16  and  _18
REMARK    8  A    between atoms: _18  and  _19
REMARK    9  A    between atoms: _18  and  _21
REMARK   10  A    between atoms: _21  and  _22
REMARK   11  A    between atoms: _22  and  _23
REMARK   12  A    between atoms: _23  and  _24
REMARK   13  A    between atoms: _24  and  _25
REMARK   14  A    between atoms: _30  and  _31
REMARK   15  A    between atoms: _36  and  _38
REMARK   16  A    between atoms: _38  and  _39
REMARK   17  A    between atoms: _38  and  _41
REMARK   18  A    between atoms: _41  and  _42
REMARK   19  A    between atoms: _42  and  _43
REMARK   20  A    between atoms: _43  and  _44
REMARK   21  A    between atoms: _53  and  _55
REMARK   22  A    between atoms: _55  and  _56
REMARK   23  A    between atoms: _55  and  _58
REMARK   24  A    between atoms: _58  and  _59
REMARK   25  A    between atoms: _62  and  _64
REMARK   26  A    between atoms: _64  and  _65
REMARK   27  A    between atoms: _64  and  _67
REMARK   28  A    between atoms: _67  and  _68
REMARK   29  A    between atoms: _78  and  _80
REMARK   30  A    between atoms: _80  and  _81
REMARK   31  A    between atoms: _80  and  _83
REMARK   32  A    between atoms: _83  and  _84
REMARK   33  A    between atoms: _84  and  _85
REMARK   34  A    between atoms: _85  and  _86
REMARK   35  A    between atoms: _86  and  _87
REMARK   36  A    between atoms: _91  and  _93
REMARK   37  A    between atoms: _93  and  _94
REMARK   38  A    between atoms: _93  and  _96
REMARK   39  A    between atoms: _96  and  _97
REMARK   40  A    between atoms: _97  and  _98
REMARK   41  A    between atoms: _98  and  _99
REMARK   42  A    between atoms: _99  and  _100
REMARK   43  A    between atoms: _104  and  _106
REMARK   44  A    between atoms: _106  and  _107
REMARK   45  A    between atoms: _106  and  _109
REMARK   46  A    between atoms: _109  and  _110
REMARK   47  A    between atoms: _110  and  _111
REMARK   48  A    between atoms: _111  and  _112
REMARK   49  A    between atoms: _121  and  _123
REMARK   50  A    between atoms: _123  and  _124
REMARK   51  A    between atoms: _123  and  _126
REMARK   52  A    between atoms: _126  and  _127
REMARK   53  A    between atoms: _130  and  _132
REMARK   54  A    between atoms: _132  and  _133
REMARK   55  A    between atoms: _132  and  _135
REMARK   56  A    between atoms: _135  and  _136
REMARK   57  A    between atoms: _141  and  _142
REMARK   58  A    between atoms: _144  and  _146
REMARK   59  A    between atoms: _146  and  _147
REMARK   60  A    between atoms: _146  and  _149
REMARK   61  A    between atoms: _149  and  _150
REMARK   62  A    between atoms: _155  and  _157
REMARK   63  A    between atoms: _157  and  _158
REMARK   64  A    between atoms: _157  and  _160
REMARK   65  A    between atoms: _160  and  _161
REMARK   66  A    between atoms: _161  and  _162
REMARK   67  A    between atoms: _164  and  _166
REMARK   68  A    between atoms: _166  and  _167
REMARK   69  A    between atoms: _166  and  _169
REMARK   70  A    between atoms: _171  and  _173
REMARK   71  A    between atoms: _173  and  _174
REMARK   72  A    between atoms: _173  and  _176
REMARK   73  A    between atoms: _176  and  _177
REMARK   74  A    between atoms: _177  and  _178
REMARK   75  A    between atoms: _178  and  _179
REMARK   76  A    between atoms: _179  and  _180
REMARK   77  A    between atoms: _184  and  _186
REMARK   78  A    between atoms: _186  and  _187
REMARK   79  A    between atoms: _186  and  _189
REMARK   80  A    between atoms: _189  and  _190
REMARK   81  A    between atoms: _193  and  _195
REMARK   82  A    between atoms: _195  and  _196
REMARK   83  A    between atoms: _195  and  _198
REMARK   84  A    between atoms: _200  and  _202
REMARK   85  A    between atoms: _202  and  _203
REMARK   86  A    between atoms: _202  and  _205
REMARK   87  A    between atoms: _205  and  _206
REMARK   88  A    between atoms: _212  and  _214
REMARK   89  A    between atoms: _214  and  _215
REMARK   90  A    between atoms: _214  and  _217
REMARK   91  A    between atoms: _217  and  _218
REMARK   92  A    between atoms: _223  and  _225
REMARK   93  A    between atoms: _225  and  _226
REMARK   94  A    between atoms: _225  and  _228
REMARK   95  A    between atoms: _228  and  _229
REMARK   96  A    between atoms: _231  and  _233
REMARK   97  A    between atoms: _233  and  _234
REMARK   98  A    between atoms: _233  and  _236
REMARK   99  A    between atoms: _236  and  _237
REMARK  100  A    between atoms: _240  and  _242
REMARK  101  A    between atoms: _242  and  _243
REMARK  102  A    between atoms: _242  and  _245
REMARK  103  A    between atoms: _245  and  _246
REMARK  104  A    between atoms: _249  and  _251
REMARK  105  A    between atoms: _251  and  _252
REMARK  106  A    between atoms: _251  and  _254
REMARK  107  A    between atoms: _254  and  _255
REMARK  108  A    between atoms: _258  and  _260
REMARK  109  A    between atoms: _260  and  _261
REMARK  110  A    between atoms: _260  and  _263
REMARK  111  A    between atoms: _263  and  _264
REMARK  112  A    between atoms: _269  and  _270
REMARK  113  A    between atoms: _272  and  _274
REMARK  114  A    between atoms: _274  and  _275
REMARK  115  A    between atoms: _274  and  _277
REMARK  116  A    between atoms: _277  and  _278
REMARK  117  A    between atoms: _283  and  _285
REMARK  118  A    between atoms: _285  and  _286
REMARK  119  A    between atoms: _288  and  _290
REMARK  120  A    between atoms: _290  and  _291
REMARK  121  A    between atoms: _290  and  _293
REMARK  122  A    between atoms: _293  and  _294
REMARK  123  A    between atoms: _299  and  _301
REMARK  124  A    between atoms: _301  and  _302
REMARK  125  A    between atoms: _301  and  _304
REMARK  126  A    between atoms: _307  and  _309
REMARK  127  A    between atoms: _309  and  _310
REMARK  128  A    between atoms: _309  and  _312
REMARK  129  A    between atoms: _312  and  _313
REMARK  130  A    between atoms: _316  and  _318
REMARK  131  A    between atoms: _318  and  _319
REMARK  132  A    between atoms: _318  and  _321
REMARK  133  A    between atoms: _321  and  _322
REMARK  134  A    between atoms: _325  and  _327
REMARK  135  A    between atoms: _327  and  _328
REMARK  136  A    between atoms: _327  and  _330
REMARK  137  A    between atoms: _330  and  _331
REMARK  138  A    between atoms: _334  and  _336
REMARK  139  A    between atoms: _336  and  _337
REMARK  140  A    between atoms: _336  and  _339
REMARK  141  A    between atoms: _339  and  _340
REMARK                            x       y       z     vdW  Elec       q    Type
REMARK                         _______ _______ _______ _____ _____    ______ ____
ROOT
ATOM      1  CA  ASP A   1      12.857  30.091  15.146  0.00  0.00    +0.144 C 
ENDROOT
BRANCH   1   2
ATOM      2  N   ASP A   1      12.956  30.059  13.674  0.00  0.00    -0.239 NA
ATOM      3  H   ASP A   1      12.197  29.636  13.103  0.00  0.00    +0.142 HD
ENDBRANCH   1   2
BRANCH   1   4
ATOM      4  C   ASP A   1      13.900  29.180  15.798  0.00  0.00    +0.225 C 
ATOM      5  O   ASP A   1      14.388  29.504  16.898  0.00  0.00    -0.287 OA
ENDBRANCH   1   4
BRANCH   1   6
ATOM      6  CB  ASP A   1      11.435  29.769  15.654  0.00  0.00    +0.139 C 
BRANCH   6   7
ATOM      7  CG  ASP A   1      10.374  30.738  15.098  0.00  0.00    +0.367 C 
ATOM      8  OD2 ASP A   1       9.222  30.301  14.905  0.00  0.00    -0.246 OA
ATOM      9  OD1 ASP A   1      10.688  31.920  14.844  0.00  0.00    -0.246 OA
ENDBRANCH   6   7
ENDBRANCH   1   6
TORSDOF 4
REMARK  Name = ../refined-set-2016/2p09/2p09_pocket.pdb
REMARK  141 active torsions:
REMARK  status: ('A' for Active; 'I' for Inactive)
REMARK    1  A    between atoms: _1  and  _3
REMARK    2  A    between atoms: _3  and  _4
REMARK    3  A    between atoms: _3  and  _6
REMARK    4  A    between atoms: _8  and  _10
REMARK    5  A    between atoms: _10  and  _11
REMARK    6  A    between atoms: _10  and  _13
REMARK    7  A    between atoms: _16  and  _18
REMARK    8  A    between atoms: _18  and  _19
REMARK    9  A    between atoms: _18  and  _21
REMARK   10  A    between atoms: _21  and  _22
REMARK   11  A    between atoms: _22  and  _23
REMARK   12  A    between atoms: _23  and  _24
REMARK   13  A    between atoms: _24  and  _25
REMARK   14  A    between atoms: _30  and  _31
REMARK   15  A    between atoms: _36  and  _38
REMARK   16  A    between atoms: _38  and  _39
REMARK   17  A    between atoms: _38  and  _41
REMARK   18  A    between atoms: _41  and  _42
REMARK   19  A    between atoms: _42  and  _43
REMARK   20  A    between atoms: _43  and  _44
REMARK   21  A    between atoms: _53  and  _55
REMARK   22  A    between atoms: _55  and  _56
REMARK   23  A    between atoms: _55  and  _58
REMARK   24  A    between atoms: _58  and  _59
REMARK   25  A    between atoms: _62  and  _64
REMARK   26  A    between atoms: _64  and  _65
REMARK   27  A    between atoms: _64  and  _67
REMARK   28  A    between atoms: _67  and  _68
REMARK   29  A    between atoms: _78  and  _80
REMARK   30  A    between atoms: _80  and  _81
REMARK   31  A    between atoms: _80  and  _83
REMARK   32  A    between atoms: _83  and  _84
REMARK   33  A    between atoms: _84  and  _85
REMARK   34  A    between atoms: _85  and  _86
REMARK   35  A    between atoms: _86  and  _87
REMARK   36  A    between atoms: _91  and  _93
REMARK   37  A    between atoms: _93  and  _94
REMARK   38  A    between atoms: _93  and  _96
REMARK   39  A    between atoms: _96  and  _97
REMARK   40  A    between atoms: _97  and  _98
REMARK   41  A    between atoms: _98  and  _99
REMARK   42  A    between atoms: _99  and  _100
REMARK   43  A    between atoms: _104  and  _106
REMARK   44  A    between atoms: _106  and  _107
REMARK   45  A    between atoms: _106  and  _109
REMARK   46  A    between atoms: _109  and  _110
REMARK   47  A    between atoms: _110  and  _111
REMARK   48  A    between atoms: _111  and  _112
REMARK   49  A    between atoms: _121  and  _123
REMARK   50  A    between atoms: _123  and  _124
REMARK   51  A    between atoms: _123  and  _126
REMARK   52  A    between atoms: _126  and  _127
REMARK   53  A    between atoms: _130  and  _132
REMARK   54  A    between atoms: _132  and  _133
REMARK   55  A    between atoms: _132  and  _135
REMARK   56  A    between atoms: _135  and  _136
REMARK   57  A    between atoms: _141  and  _142
REMARK   58  A    between atoms: _144  and  _146
REMARK   59  A    between atoms: _146  and  _147
REMARK   60  A    between atoms: _146  and  _149
REMARK   61  A    between atoms: _149  and  _150
REMARK   62  A    between atoms: _155  and  _157
REMARK   63  A    between atoms: _157  and  _158
REMARK   64  A    between atoms: _157  and  _160
REMARK   65  A    between atoms: _160  and  _161
REMARK   66  A    between atoms: _161  and  _162
REMARK   67  A    between atoms: _164  and  _166
REMARK   68  A    between atoms: _166  and  _167
REMARK   69  A    between atoms: _166  and  _169
REMARK   70  A    between atoms: _171  and  _173
REMARK   71  A    between atoms: _173  and  _174
REMARK   72  A    between atoms: _173  and  _176
REMARK   73  A    between atoms: _176  and  _177
REMARK   74  A    between atoms: _177  and  _178
REMARK   75  A    between atoms: _178  and  _179
REMARK   76  A    between atoms: _179  and  _180
REMARK   77  A    between atoms: _184  and  _186
REMARK   78  A    between atoms: _186  and  _187
REMARK   79  A    between atoms: _186  and  _189
REMARK   80  A    between atoms: _189  and  _190
REMARK   81  A    between atoms: _193  and  _195
REMARK   82  A    between atoms: _195  and  _196
REMARK   83  A    between atoms: _195  and  _198
REMARK   84  A    between atoms: _200  and  _202
REMARK   85  A    between atoms: _202  and  _203
REMARK   86  A    between atoms: _202  and  _205
REMARK   87  A    between atoms: _205  and  _206
REMARK   88  A    between atoms: _212  and  _214
REMARK   89  A    between atoms: _214  and  _215
REMARK   90  A    between atoms: _214  and  _217
REMARK   91  A    between atoms: _217  and  _218
REMARK   92  A    between atoms: _223  and  _225
REMARK   93  A    between atoms: _225  and  _226
REMARK   94  A    between atoms: _225  and  _228
REMARK   95  A    between atoms: _228  and  _229
REMARK   96  A    between atoms: _231  and  _233
REMARK   97  A    between atoms: _233  and  _234
REMARK   98  A    between atoms: _233  and  _236
REMARK   99  A    between atoms: _236  and  _237
REMARK  100  A    between atoms: _240  and  _242
REMARK  101  A    between atoms: _242  and  _243
REMARK  102  A    between atoms: _242  and  _245
REMARK  103  A    between atoms: _245  and  _246
REMARK  104  A    between atoms: _249  and  _251
REMARK  105  A    between atoms: _251  and  _252
REMARK  106  A    between atoms: _251  and  _254
REMARK  107  A    between atoms: _254  and  _255
REMARK  108  A    between atoms: _258  and  _260
REMARK  109  A    between atoms: _260  and  _261
REMARK  110  A    between atoms: _260  and  _263
REMARK  111  A    between atoms: _263  and  _264
REMARK  112  A    between atoms: _269  and  _270
REMARK  113  A    between atoms: _272  and  _274
REMARK  114  A    between atoms: _274  and  _275
REMARK  115  A    between atoms: _274  and  _277
REMARK  116  A    between atoms: _277  and  _278
REMARK  117  A    between atoms: _283  and  _285
REMARK  118  A    between atoms: _285  and  _286
REMARK  119  A    between atoms: _288  and  _290
REMARK  120  A    between atoms: _290  and  _291
REMARK  121  A    between atoms: _290  and  _293
REMARK  122  A    between atoms: _293  and  _294
REMARK  123  A    between atoms: _299  and  _301
REMARK  124  A    between atoms: _301  and  _302
REMARK  125  A    between atoms: _301  and  _304
REMARK  126  A    between atoms: _307  and  _309
REMARK  127  A    between atoms: _309  and  _310
REMARK  128  A    between atoms: _309  and  _312
REMARK  129  A    between atoms: _312  and  _313
REMARK  130  A    between atoms: _316  and  _318
REMARK  131  A    between atoms: _318  and  _319
REMARK  132  A    between atoms: _318  and  _321
REMARK  133  A    between atoms: _321  and  _322
REMARK  134  A    between atoms: _325  and  _327
REMARK  135  A    between atoms: _327  and  _328
REMARK  136  A    between atoms: _327  and  _330
REMARK  137  A    between atoms: _330  and  _331
REMARK  138  A    between atoms: _334  and  _336
REMARK  139  A    between atoms: _336  and  _337
REMARK  140  A    between atoms: _336  and  _339
REMARK  141  A    between atoms: _339  and  _340
REMARK                            x       y       z     vdW  Elec       q    Type
REMARK                         _______ _______ _______ _____ _____    ______ ____
ROOT
ATOM      1  C   ASP A   1       9.290  22.848  20.352  0.00  0.00    +0.239 C 
ATOM      2  N   SER A   2       8.615  22.941  21.497  0.00  0.00    -0.296 N 
ATOM      3  H   SER A   2       8.104  23.821  21.710  0.00  0.00    +0.150 HD
ATOM      4  O   ASP A   1       9.941  21.848  20.011  0.00  0.00    -0.274 OA
ENDROOT
BRANCH   1   5
ATOM      5  CA  ASP A   1       9.276  24.071  19.481  0.00  0.00    +0.156 C 
BRANCH   5   6
ATOM      6  N   ASP A   1      10.616  24.550  19.192  0.00  0.00    -0.238 NA
ATOM      7  H   ASP A   1      11.278  23.980  18.627  0.00  0.00    +0.142 HD
ENDBRANCH   5   6
BRANCH   5   8
ATOM      8  CB  ASP A   1       8.438  23.885  18.185  0.00  0.00    +0.140 C 
BRANCH   8   9
ATOM      9  CG  ASP A   1       6.941  23.799  18.496  0.00  0.00    +0.367 C 
ATOM     10  OD2 ASP A   1       6.529  22.838  19.203  0.00  0.00    -0.246 OA
ATOM     11  OD1 ASP A   1       6.188  24.688  18.068  0.00  0.00    -0.246 OA
ENDBRANCH   8   9
ENDBRANCH   5   8
ENDBRANCH   1   5
BRANCH   2  12
ATOM     12  CA  SER A   2       8.570  21.847  22.461  0.00  0.00    +0.166 C 
BRANCH  12  13
ATOM     13  CB  SER A   2       7.694  20.672  21.973  0.00  0.00    +0.229 C 
ATOM     14  OG  SER A   2       7.817  19.581  22.557  0.00  0.00    -0.286 OA
ENDBRANCH  12  13
BRANCH  12  15
ATOM     15  C   SER A   2       8.141  22.342  23.857  0.00  0.00    +0.165 C 
BRANCH  15  16
ATOM     16  O   SER A   2       6.840  22.900  23.844  0.00  0.00    -0.380 OA
ATOM     17  H   SER A   2       6.819  23.670  23.222  0.00  0.00    +0.211 HD
ENDBRANCH  15  16
ENDBRANCH  12  15
ENDBRANCH   2  12
TORSDOF 8
REMARK  Name = ../refined-set-2016/2p09/2p09_pocket.pdb
REMARK  141 active torsions:
REMARK  status: ('A' for Active; 'I' for Inactive)
REMARK    1  A    between atoms: _1  and  _3
REMARK    2  A    between atoms: _3  and  _4
REMARK    3  A    between atoms: _3  and  _6
REMARK    4  A    between atoms: _8  and  _10
REMARK    5  A    between atoms: _10  and  _11
REMARK    6  A    between atoms: _10  and  _13
REMARK    7  A    between atoms: _16  and  _18
REMARK    8  A    between atoms: _18  and  _19
REMARK    9  A    between atoms: _18  and  _21
REMARK   10  A    between atoms: _21  and  _22
REMARK   11  A    between atoms: _22  and  _23
REMARK   12  A    between atoms: _23  and  _24
REMARK   13  A    between atoms: _24  and  _25
REMARK   14  A    between atoms: _30  and  _31
REMARK   15  A    between atoms: _36  and  _38
REMARK   16  A    between atoms: _38  and  _39
REMARK   17  A    between atoms: _38  and  _41
REMARK   18  A    between atoms: _41  and  _42
REMARK   19  A    between atoms: _42  and  _43
REMARK   20  A    between atoms: _43  and  _44
REMARK   21  A    between atoms: _53  and  _55
REMARK   22  A    between atoms: _55  and  _56
REMARK   23  A    between atoms: _55  and  _58
REMARK   24  A    between atoms: _58  and  _59
REMARK   25  A    between atoms: _62  and  _64
REMARK   26  A    between atoms: _64  and  _65
REMARK   27  A    between atoms: _64  and  _67
REMARK   28  A    between atoms: _67  and  _68
REMARK   29  A    between atoms: _78  and  _80
REMARK   30  A    between atoms: _80  and  _81
REMARK   31  A    between atoms: _80  and  _83
REMARK   32  A    between atoms: _83  and  _84
REMARK   33  A    between atoms: _84  and  _85
REMARK   34  A    between atoms: _85  and  _86
REMARK   35  A    between atoms: _86  and  _87
REMARK   36  A    between atoms: _91  and  _93
REMARK   37  A    between atoms: _93  and  _94
REMARK   38  A    between atoms: _93  and  _96
REMARK   39  A    between atoms: _96  and  _97
REMARK   40  A    between atoms: _97  and  _98
REMARK   41  A    between atoms: _98  and  _99
REMARK   42  A    between atoms: _99  and  _100
REMARK   43  A    between atoms: _104  and  _106
REMARK   44  A    between atoms: _106  and  _107
REMARK   45  A    between atoms: _106  and  _109
REMARK   46  A    between atoms: _109  and  _110
REMARK   47  A    between atoms: _110  and  _111
REMARK   48  A    between atoms: _111  and  _112
REMARK   49  A    between atoms: _121  and  _123
REMARK   50  A    between atoms: _123  and  _124
REMARK   51  A    between atoms: _123  and  _126
REMARK   52  A    between atoms: _126  and  _127
REMARK   53  A    between atoms: _130  and  _132
REMARK   54  A    between atoms: _132  and  _133
REMARK   55  A    between atoms: _132  and  _135
REMARK   56  A    between atoms: _135  and  _136
REMARK   57  A    between atoms: _141  and  _142
REMARK   58  A    between atoms: _144  and  _146
REMARK   59  A    between atoms: _146  and  _147
REMARK   60  A    between atoms: _146  and  _149
REMARK   61  A    between atoms: _149  and  _150
REMARK   62  A    between atoms: _155  and  _157
REMARK   63  A    between atoms: _157  and  _158
REMARK   64  A    between atoms: _157  and  _160
REMARK   65  A    between atoms: _160  and  _161
REMARK   66  A    between atoms: _161  and  _162
REMARK   67  A    between atoms: _164  and  _166
REMARK   68  A    between atoms: _166  and  _167
REMARK   69  A    between atoms: _166  and  _169
REMARK   70  A    between atoms: _171  and  _173
REMARK   71  A    between atoms: _173  and  _174
REMARK   72  A    between atoms: _173  and  _176
REMARK   73  A    between atoms: _176  and  _177
REMARK   74  A    between atoms: _177  and  _178
REMARK   75  A    between atoms: _178  and  _179
REMARK   76  A    between atoms: _179  and  _180
REMARK   77  A    between atoms: _184  and  _186
REMARK   78  A    between atoms: _186  and  _187
REMARK   79  A    between atoms: _186  and  _189
REMARK   80  A    between atoms: _189  and  _190
REMARK   81  A    between atoms: _193  and  _195
REMARK   82  A    between atoms: _195  and  _196
REMARK   83  A    between atoms: _195  and  _198
REMARK   84  A    between atoms: _200  and  _202
REMARK   85  A    between atoms: _202  and  _203
REMARK   86  A    between atoms: _202  and  _205
REMARK   87  A    between atoms: _205  and  _206
REMARK   88  A    between atoms: _212  and  _214
REMARK   89  A    between atoms: _214  and  _215
REMARK   90  A    between atoms: _214  and  _217
REMARK   91  A    between atoms: _217  and  _218
REMARK   92  A    between atoms: _223  and  _225
REMARK   93  A    between atoms: _225  and  _226
REMARK   94  A    between atoms: _225  and  _228
REMARK   95  A    between atoms: _228  and  _229
REMARK   96  A    between atoms: _231  and  _233
REMARK   97  A    between atoms: _233  and  _234
REMARK   98  A    between atoms: _233  and  _236
REMARK   99  A    between atoms: _236  and  _237
REMARK  100  A    between atoms: _240  and  _242
REMARK  101  A    between atoms: _242  and  _243
REMARK  102  A    between atoms: _242  and  _245
REMARK  103  A    between atoms: _245  and  _246
REMARK  104  A    between atoms: _249  and  _251
REMARK  105  A    between atoms: _251  and  _252
REMARK  106  A    between atoms: _251  and  _254
REMARK  107  A    between atoms: _254  and  _255
REMARK  108  A    between atoms: _258  and  _260
REMARK  109  A    between atoms: _260  and  _261
REMARK  110  A    between atoms: _260  and  _263
REMARK  111  A    between atoms: _263  and  _264
REMARK  112  A    between atoms: _269  and  _270
REMARK  113  A    between atoms: _272  and  _274
REMARK  114  A    between atoms: _274  and  _275
REMARK  115  A    between atoms: _274  and  _277
REMARK  116  A    between atoms: _277  and  _278
REMARK  117  A    between atoms: _283  and  _285
REMARK  118  A    between atoms: _285  and  _286
REMARK  119  A    between atoms: _288  and  _290
REMARK  120  A    between atoms: _290  and  _291
REMARK  121  A    between atoms: _290  and  _293
REMARK  122  A    between atoms: _293  and  _294
REMARK  123  A    between atoms: _299  and  _301
REMARK  124  A    between atoms: _301  and  _302
REMARK  125  A    between atoms: _301  and  _304
REMARK  126  A    between atoms: _307  and  _309
REMARK  127  A    between atoms: _309  and  _310
REMARK  128  A    between atoms: _309  and  _312
REMARK  129  A    between atoms: _312  and  _313
REMARK  130  A    between atoms: _316  and  _318
REMARK  131  A    between atoms: _318  and  _319
REMARK  132  A    between atoms: _318  and  _321
REMARK  133  A    between atoms: _321  and  _322
REMARK  134  A    between atoms: _325  and  _327
REMARK  135  A    between atoms: _327  and  _328
REMARK  136  A    between atoms: _327  and  _330
REMARK  137  A    between atoms: _330  and  _331
REMARK  138  A    between atoms: _334  and  _336
REMARK  139  A    between atoms: _336  and  _337
REMARK  140  A    between atoms: _336  and  _339
REMARK  141  A    between atoms: _339  and  _340
REMARK                            x       y       z     vdW  Elec       q    Type
REMARK                         _______ _______ _______ _____ _____    ______ ____
ROOT
ATOM      1  O   HOH     1       4.145  38.818  10.182  0.00  0.00    +0.000 OA
ENDROOT
TORSDOF 0
REMARK  Name = ../refined-set-2016/2p09/2p09_pocket.pdb
REMARK  141 active torsions:
REMARK  status: ('A' for Active; 'I' for Inactive)
REMARK    1  A    between atoms: _1  and  _3
REMARK    2  A    between atoms: _3  and  _4
REMARK    3  A    between atoms: _3  and  _6
REMARK    4  A    between atoms: _8  and  _10
REMARK    5  A    between atoms: _10  and  _11
REMARK    6  A    between atoms: _10  and  _13
REMARK    7  A    between atoms: _16  and  _18
REMARK    8  A    between atoms: _18  and  _19
REMARK    9  A    between atoms: _18  and  _21
REMARK   10  A    between atoms: _21  and  _22
REMARK   11  A    between atoms: _22  and  _23
REMARK   12  A    between atoms: _23  and  _24
REMARK   13  A    between atoms: _24  and  _25
REMARK   14  A    between atoms: _30  and  _31
REMARK   15  A    between atoms: _36  and  _38
REMARK   16  A    between atoms: _38  and  _39
REMARK   17  A    between atoms: _38  and  _41
REMARK   18  A    between atoms: _41  and  _42
REMARK   19  A    between atoms: _42  and  _43
REMARK   20  A    between atoms: _43  and  _44
REMARK   21  A    between atoms: _53  and  _55
REMARK   22  A    between atoms: _55  and  _56
REMARK   23  A    between atoms: _55  and  _58
REMARK   24  A    between atoms: _58  and  _59
REMARK   25  A    between atoms: _62  and  _64
REMARK   26  A    between atoms: _64  and  _65
REMARK   27  A    between atoms: _64  and  _67
REMARK   28  A    between atoms: _67  and  _68
REMARK   29  A    between atoms: _78  and  _80
REMARK   30  A    between atoms: _80  and  _81
REMARK   31  A    between atoms: _80  and  _83
REMARK   32  A    between atoms: _83  and  _84
REMARK   33  A    between atoms: _84  and  _85
REMARK   34  A    between atoms: _85  and  _86
REMARK   35  A    between atoms: _86  and  _87
REMARK   36  A    between atoms: _91  and  _93
REMARK   37  A    between atoms: _93  and  _94
REMARK   38  A    between atoms: _93  and  _96
REMARK   39  A    between atoms: _96  and  _97
REMARK   40  A    between atoms: _97  and  _98
REMARK   41  A    between atoms: _98  and  _99
REMARK   42  A    between atoms: _99  and  _100
REMARK   43  A    between atoms: _104  and  _106
REMARK   44  A    between atoms: _106  and  _107
REMARK   45  A    between atoms: _106  and  _109
REMARK   46  A    between atoms: _109  and  _110
REMARK   47  A    between atoms: _110  and  _111
REMARK   48  A    between atoms: _111  and  _112
REMARK   49  A    between atoms: _121  and  _123
REMARK   50  A    between atoms: _123  and  _124
REMARK   51  A    between atoms: _123  and  _126
REMARK   52  A    between atoms: _126  and  _127
REMARK   53  A    between atoms: _130  and  _132
REMARK   54  A    between atoms: _132  and  _133
REMARK   55  A    between atoms: _132  and  _135
REMARK   56  A    between atoms: _135  and  _136
REMARK   57  A    between atoms: _141  and  _142
REMARK   58  A    between atoms: _144  and  _146
REMARK   59  A    between atoms: _146  and  _147
REMARK   60  A    between atoms: _146  and  _149
REMARK   61  A    between atoms: _149  and  _150
REMARK   62  A    between atoms: _155  and  _157
REMARK   63  A    between atoms: _157  and  _158
REMARK   64  A    between atoms: _157  and  _160
REMARK   65  A    between atoms: _160  and  _161
REMARK   66  A    between atoms: _161  and  _162
REMARK   67  A    between atoms: _164  and  _166
REMARK   68  A    between atoms: _166  and  _167
REMARK   69  A    between atoms: _166  and  _169
REMARK   70  A    between atoms: _171  and  _173
REMARK   71  A    between atoms: _173  and  _174
REMARK   72  A    between atoms: _173  and  _176
REMARK   73  A    between atoms: _176  and  _177
REMARK   74  A    between atoms: _177  and  _178
REMARK   75  A    between atoms: _178  and  _179
REMARK   76  A    between atoms: _179  and  _180
REMARK   77  A    between atoms: _184  and  _186
REMARK   78  A    between atoms: _186  and  _187
REMARK   79  A    between atoms: _186  and  _189
REMARK   80  A    between atoms: _189  and  _190
REMARK   81  A    between atoms: _193  and  _195
REMARK   82  A    between atoms: _195  and  _196
REMARK   83  A    between atoms: _195  and  _198
REMARK   84  A    between atoms: _200  and  _202
REMARK   85  A    between atoms: _202  and  _203
REMARK   86  A    between atoms: _202  and  _205
REMARK   87  A    between atoms: _205  and  _206
REMARK   88  A    between atoms: _212  and  _214
REMARK   89  A    between atoms: _214  and  _215
REMARK   90  A    between atoms: _214  and  _217
REMARK   91  A    between atoms: _217  and  _218
REMARK   92  A    between atoms: _223  and  _225
REMARK   93  A    between atoms: _225  and  _226
REMARK   94  A    between atoms: _225  and  _228
REMARK   95  A    between atoms: _228  and  _229
REMARK   96  A    between atoms: _231  and  _233
REMARK   97  A    between atoms: _233  and  _234
REMARK   98  A    between atoms: _233  and  _236
REMARK   99  A    between atoms: _236  and  _237
REMARK  100  A    between atoms: _240  and  _242
REMARK  101  A    between atoms: _242  and  _243
REMARK  102  A    between atoms: _242  and  _245
REMARK  103  A    between atoms: _245  and  _246
REMARK  104  A    between atoms: _249  and  _251
REMARK  105  A    between atoms: _251  and  _252
REMARK  106  A    between atoms: _251  and  _254
REMARK  107  A    between atoms: _254  and  _255
REMARK  108  A    between atoms: _258  and  _260
REMARK  109  A    between atoms: _260  and  _261
REMARK  110  A    between atoms: _260  and  _263
REMARK  111  A    between atoms: _263  and  _264
REMARK  112  A    between atoms: _269  and  _270
REMARK  113  A    between atoms: _272  and  _274
REMARK  114  A    between atoms: _274  and  _275
REMARK  115  A    between atoms: _274  and  _277
REMARK  116  A    between atoms: _277  and  _278
REMARK  117  A    between atoms: _283  and  _285
REMARK  118  A    between atoms: _285  and  _286
REMARK  119  A    between atoms: _288  and  _290
REMARK  120  A    between atoms: _290  and  _291
REMARK  121  A    between atoms: _290  and  _293
REMARK  122  A    between atoms: _293  and  _294
REMARK  123  A    between atoms: _299  and  _301
REMARK  124  A    between atoms: _301  and  _302
REMARK  125  A    between atoms: _301  and  _304
REMARK  126  A    between atoms: _307  and  _309
REMARK  127  A    between atoms: _309  and  _310
REMARK  128  A    between atoms: _309  and  _312
REMARK  129  A    between atoms: _312  and  _313
REMARK  130  A    between atoms: _316  and  _318
REMARK  131  A    between atoms: _318  and  _319
REMARK  132  A    between atoms: _318  and  _321
REMARK  133  A    between atoms: _321  and  _322
REMARK  134  A    between atoms: _325  and  _327
REMARK  135  A    between atoms: _327  and  _328
REMARK  136  A    between atoms: _327  and  _330
REMARK  137  A    between atoms: _330  and  _331
REMARK  138  A    between atoms: _334  and  _336
REMARK  139  A    between atoms: _336  and  _337
REMARK  140  A    between atoms: _336  and  _339
REMARK  141  A    between atoms: _339  and  _340
REMARK                            x       y       z     vdW  Elec       q    Type
REMARK                         _______ _______ _______ _____ _____    ______ ____
ROOT
ATOM      1  O   HOH     1      10.333  34.470  20.160  0.00  0.00    +0.000 OA
ENDROOT
TORSDOF 0
REMARK  Name = ../refined-set-2016/2p09/2p09_pocket.pdb
REMARK  141 active torsions:
REMARK  status: ('A' for Active; 'I' for Inactive)
REMARK    1  A    between atoms: _1  and  _3
REMARK    2  A    between atoms: _3  and  _4
REMARK    3  A    between atoms: _3  and  _6
REMARK    4  A    between atoms: _8  and  _10
REMARK    5  A    between atoms: _10  and  _11
REMARK    6  A    between atoms: _10  and  _13
REMARK    7  A    between atoms: _16  and  _18
REMARK    8  A    between atoms: _18  and  _19
REMARK    9  A    between atoms: _18  and  _21
REMARK   10  A    between atoms: _21  and  _22
REMARK   11  A    between atoms: _22  and  _23
REMARK   12  A    between atoms: _23  and  _24
REMARK   13  A    between atoms: _24  and  _25
REMARK   14  A    between atoms: _30  and  _31
REMARK   15  A    between atoms: _36  and  _38
REMARK   16  A    between atoms: _38  and  _39
REMARK   17  A    between atoms: _38  and  _41
REMARK   18  A    between atoms: _41  and  _42
REMARK   19  A    between atoms: _42  and  _43
REMARK   20  A    between atoms: _43  and  _44
REMARK   21  A    between atoms: _53  and  _55
REMARK   22  A    between atoms: _55  and  _56
REMARK   23  A    between atoms: _55  and  _58
REMARK   24  A    between atoms: _58  and  _59
REMARK   25  A    between atoms: _62  and  _64
REMARK   26  A    between atoms: _64  and  _65
REMARK   27  A    between atoms: _64  and  _67
REMARK   28  A    between atoms: _67  and  _68
REMARK   29  A    between atoms: _78  and  _80
REMARK   30  A    between atoms: _80  and  _81
REMARK   31  A    between atoms: _80  and  _83
REMARK   32  A    between atoms: _83  and  _84
REMARK   33  A    between atoms: _84  and  _85
REMARK   34  A    between atoms: _85  and  _86
REMARK   35  A    between atoms: _86  and  _87
REMARK   36  A    between atoms: _91  and  _93
REMARK   37  A    between atoms: _93  and  _94
REMARK   38  A    between atoms: _93  and  _96
REMARK   39  A    between atoms: _96  and  _97
REMARK   40  A    between atoms: _97  and  _98
REMARK   41  A    between atoms: _98  and  _99
REMARK   42  A    between atoms: _99  and  _100
REMARK   43  A    between atoms: _104  and  _106
REMARK   44  A    between atoms: _106  and  _107
REMARK   45  A    between atoms: _106  and  _109
REMARK   46  A    between atoms: _109  and  _110
REMARK   47  A    between atoms: _110  and  _111
REMARK   48  A    between atoms: _111  and  _112
REMARK   49  A    between atoms: _121  and  _123
REMARK   50  A    between atoms: _123  and  _124
REMARK   51  A    between atoms: _123  and  _126
REMARK   52  A    between atoms: _126  and  _127
REMARK   53  A    between atoms: _130  and  _132
REMARK   54  A    between atoms: _132  and  _133
REMARK   55  A    between atoms: _132  and  _135
REMARK   56  A    between atoms: _135  and  _136
REMARK   57  A    between atoms: _141  and  _142
REMARK   58  A    between atoms: _144  and  _146
REMARK   59  A    between atoms: _146  and  _147
REMARK   60  A    between atoms: _146  and  _149
REMARK   61  A    between atoms: _149  and  _150
REMARK   62  A    between atoms: _155  and  _157
REMARK   63  A    between atoms: _157  and  _158
REMARK   64  A    between atoms: _157  and  _160
REMARK   65  A    between atoms: _160  and  _161
REMARK   66  A    between atoms: _161  and  _162
REMARK   67  A    between atoms: _164  and  _166
REMARK   68  A    between atoms: _166  and  _167
REMARK   69  A    between atoms: _166  and  _169
REMARK   70  A    between atoms: _171  and  _173
REMARK   71  A    between atoms: _173  and  _174
REMARK   72  A    between atoms: _173  and  _176
REMARK   73  A    between atoms: _176  and  _177
REMARK   74  A    between atoms: _177  and  _178
REMARK   75  A    between atoms: _178  and  _179
REMARK   76  A    between atoms: _179  and  _180
REMARK   77  A    between atoms: _184  and  _186
REMARK   78  A    between atoms: _186  and  _187
REMARK   79  A    between atoms: _186  and  _189
REMARK   80  A    between atoms: _189  and  _190
REMARK   81  A    between atoms: _193  and  _195
REMARK   82  A    between atoms: _195  and  _196
REMARK   83  A    between atoms: _195  and  _198
REMARK   84  A    between atoms: _200  and  _202
REMARK   85  A    between atoms: _202  and  _203
REMARK   86  A    between atoms: _202  and  _205
REMARK   87  A    between atoms: _205  and  _206
REMARK   88  A    between atoms: _212  and  _214
REMARK   89  A    between atoms: _214  and  _215
REMARK   90  A    between atoms: _214  and  _217
REMARK   91  A    between atoms: _217  and  _218
REMARK   92  A    between atoms: _223  and  _225
REMARK   93  A    between atoms: _225  and  _226
REMARK   94  A    between atoms: _225  and  _228
REMARK   95  A    between atoms: _228  and  _229
REMARK   96  A    between atoms: _231  and  _233
REMARK   97  A    between atoms: _233  and  _234
REMARK   98  A    between atoms: _233  and  _236
REMARK   99  A    between atoms: _236  and  _237
REMARK  100  A    between atoms: _240  and  _242
REMARK  101  A    between atoms: _242  and  _243
REMARK  102  A    between atoms: _242  and  _245
REMARK  103  A    between atoms: _245  and  _246
REMARK  104  A    between atoms: _249  and  _251
REMARK  105  A    between atoms: _251  and  _252
REMARK  106  A    between atoms: _251  and  _254
REMARK  107  A    between atoms: _254  and  _255
REMARK  108  A    between atoms: _258  and  _260
REMARK  109  A    between atoms: _260  and  _261
REMARK  110  A    between atoms: _260  and  _263
REMARK  111  A    between atoms: _263  and  _264
REMARK  112  A    between atoms: _269  and  _270
REMARK  113  A    between atoms: _272  and  _274
REMARK  114  A    between atoms: _274  and  _275
REMARK  115  A    between atoms: _274  and  _277
REMARK  116  A    between atoms: _277  and  _278
REMARK  117  A    between atoms: _283  and  _285
REMARK  118  A    between atoms: _285  and  _286
REMARK  119  A    between atoms: _288  and  _290
REMARK  120  A    between atoms: _290  and  _291
REMARK  121  A    between atoms: _290  and  _293
REMARK  122  A    between atoms: _293  and  _294
REMARK  123  A    between atoms: _299  and  _301
REMARK  124  A    between atoms: _301  and  _302
REMARK  125  A    between atoms: _301  and  _304
REMARK  126  A    between atoms: _307  and  _309
REMARK  127  A    between atoms: _309  and  _310
REMARK  128  A    between atoms: _309  and  _312
REMARK  129  A    between atoms: _312  and  _313
REMARK  130  A    between atoms: _316  and  _318
REMARK  131  A    between atoms: _318  and  _319
REMARK  132  A    between atoms: _318  and  _321
REMARK  133  A    between atoms: _321  and  _322
REMARK  134  A    between atoms: _325  and  _327
REMARK  135  A    between atoms: _327  and  _328
REMARK  136  A    between atoms: _327  and  _330
REMARK  137  A    between atoms: _330  and  _331
REMARK  138  A    between atoms: _334  and  _336
REMARK  139  A    between atoms: _336  and  _337
REMARK  140  A    between atoms: _336  and  _339
REMARK  141  A    between atoms: _339  and  _340
REMARK                            x       y       z     vdW  Elec       q    Type
REMARK                         _______ _______ _______ _____ _____    ______ ____
ROOT
ATOM      1  O   HOH     1      -1.495  37.576  26.122  0.00  0.00    +0.000 OA
ENDROOT
TORSDOF 0
REMARK  Name = ../refined-set-2016/2p09/2p09_pocket.pdb
REMARK  141 active torsions:
REMARK  status: ('A' for Active; 'I' for Inactive)
REMARK    1  A    between atoms: _1  and  _3
REMARK    2  A    between atoms: _3  and  _4
REMARK    3  A    between atoms: _3  and  _6
REMARK    4  A    between atoms: _8  and  _10
REMARK    5  A    between atoms: _10  and  _11
REMARK    6  A    between atoms: _10  and  _13
REMARK    7  A    between atoms: _16  and  _18
REMARK    8  A    between atoms: _18  and  _19
REMARK    9  A    between atoms: _18  and  _21
REMARK   10  A    between atoms: _21  and  _22
REMARK   11  A    between atoms: _22  and  _23
REMARK   12  A    between atoms: _23  and  _24
REMARK   13  A    between atoms: _24  and  _25
REMARK   14  A    between atoms: _30  and  _31
REMARK   15  A    between atoms: _36  and  _38
REMARK   16  A    between atoms: _38  and  _39
REMARK   17  A    between atoms: _38  and  _41
REMARK   18  A    between atoms: _41  and  _42
REMARK   19  A    between atoms: _42  and  _43
REMARK   20  A    between atoms: _43  and  _44
REMARK   21  A    between atoms: _53  and  _55
REMARK   22  A    between atoms: _55  and  _56
REMARK   23  A    between atoms: _55  and  _58
REMARK   24  A    between atoms: _58  and  _59
REMARK   25  A    between atoms: _62  and  _64
REMARK   26  A    between atoms: _64  and  _65
REMARK   27  A    between atoms: _64  and  _67
REMARK   28  A    between atoms: _67  and  _68
REMARK   29  A    between atoms: _78  and  _80
REMARK   30  A    between atoms: _80  and  _81
REMARK   31  A    between atoms: _80  and  _83
REMARK   32  A    between atoms: _83  and  _84
REMARK   33  A    between atoms: _84  and  _85
REMARK   34  A    between atoms: _85  and  _86
REMARK   35  A    between atoms: _86  and  _87
REMARK   36  A    between atoms: _91  and  _93
REMARK   37  A    between atoms: _93  and  _94
REMARK   38  A    between atoms: _93  and  _96
REMARK   39  A    between atoms: _96  and  _97
REMARK   40  A    between atoms: _97  and  _98
REMARK   41  A    between atoms: _98  and  _99
REMARK   42  A    between atoms: _99  and  _100
REMARK   43  A    between atoms: _104  and  _106
REMARK   44  A    between atoms: _106  and  _107
REMARK   45  A    between atoms: _106  and  _109
REMARK   46  A    between atoms: _109  and  _110
REMARK   47  A    between atoms: _110  and  _111
REMARK   48  A    between atoms: _111  and  _112
REMARK   49  A    between atoms: _121  and  _123
REMARK   50  A    between atoms: _123  and  _124
REMARK   51  A    between atoms: _123  and  _126
REMARK   52  A    between atoms: _126  and  _127
REMARK   53  A    between atoms: _130  and  _132
REMARK   54  A    between atoms: _132  and  _133
REMARK   55  A    between atoms: _132  and  _135
REMARK   56  A    between atoms: _135  and  _136
REMARK   57  A    between atoms: _141  and  _142
REMARK   58  A    between atoms: _144  and  _146
REMARK   59  A    between atoms: _146  and  _147
REMARK   60  A    between atoms: _146  and  _149
REMARK   61  A    between atoms: _149  and  _150
REMARK   62  A    between atoms: _155  and  _157
REMARK   63  A    between atoms: _157  and  _158
REMARK   64  A    between atoms: _157  and  _160
REMARK   65  A    between atoms: _160  and  _161
REMARK   66  A    between atoms: _161  and  _162
REMARK   67  A    between atoms: _164  and  _166
REMARK   68  A    between atoms: _166  and  _167
REMARK   69  A    between atoms: _166  and  _169
REMARK   70  A    between atoms: _171  and  _173
REMARK   71  A    between atoms: _173  and  _174
REMARK   72  A    between atoms: _173  and  _176
REMARK   73  A    between atoms: _176  and  _177
REMARK   74  A    between atoms: _177  and  _178
REMARK   75  A    between atoms: _178  and  _179
REMARK   76  A    between atoms: _179  and  _180
REMARK   77  A    between atoms: _184  and  _186
REMARK   78  A    between atoms: _186  and  _187
REMARK   79  A    between atoms: _186  and  _189
REMARK   80  A    between atoms: _189  and  _190
REMARK   81  A    between atoms: _193  and  _195
REMARK   82  A    between atoms: _195  and  _196
REMARK   83  A    between atoms: _195  and  _198
REMARK   84  A    between atoms: _200  and  _202
REMARK   85  A    between atoms: _202  and  _203
REMARK   86  A    between atoms: _202  and  _205
REMARK   87  A    between atoms: _205  and  _206
REMARK   88  A    between atoms: _212  and  _214
REMARK   89  A    between atoms: _214  and  _215
REMARK   90  A    between atoms: _214  and  _217
REMARK   91  A    between atoms: _217  and  _218
REMARK   92  A    between atoms: _223  and  _225
REMARK   93  A    between atoms: _225  and  _226
REMARK   94  A    between atoms: _225  and  _228
REMARK   95  A    between atoms: _228  and  _229
REMARK   96  A    between atoms: _231  and  _233
REMARK   97  A    between atoms: _233  and  _234
REMARK   98  A    between atoms: _233  and  _236
REMARK   99  A    between atoms: _236  and  _237
REMARK  100  A    between atoms: _240  and  _242
REMARK  101  A    between atoms: _242  and  _243
REMARK  102  A    between atoms: _242  and  _245
REMARK  103  A    between atoms: _245  and  _246
REMARK  104  A    between atoms: _249  and  _251
REMARK  105  A    between atoms: _251  and  _252
REMARK  106  A    between atoms: _251  and  _254
REMARK  107  A    between atoms: _254  and  _255
REMARK  108  A    between atoms: _258  and  _260
REMARK  109  A    between atoms: _260  and  _261
REMARK  110  A    between atoms: _260  and  _263
REMARK  111  A    between atoms: _263  and  _264
REMARK  112  A    between atoms: _269  and  _270
REMARK  113  A    between atoms: _272  and  _274
REMARK  114  A    between atoms: _274  and  _275
REMARK  115  A    between atoms: _274  and  _277
REMARK  116  A    between atoms: _277  and  _278
REMARK  117  A    between atoms: _283  and  _285
REMARK  118  A    between atoms: _285  and  _286
REMARK  119  A    between atoms: _288  and  _290
REMARK  120  A    between atoms: _290  and  _291
REMARK  121  A    between atoms: _290  and  _293
REMARK  122  A    between atoms: _293  and  _294
REMARK  123  A    between atoms: _299  and  _301
REMARK  124  A    between atoms: _301  and  _302
REMARK  125  A    between atoms: _301  and  _304
REMARK  126  A    between atoms: _307  and  _309
REMARK  127  A    between atoms: _309  and  _310
REMARK  128  A    between atoms: _309  and  _312
REMARK  129  A    between atoms: _312  and  _313
REMARK  130  A    between atoms: _316  and  _318
REMARK  131  A    between atoms: _318  and  _319
REMARK  132  A    between atoms: _318  and  _321
REMARK  133  A    between atoms: _321  and  _322
REMARK  134  A    between atoms: _325  and  _327
REMARK  135  A    between atoms: _327  and  _328
REMARK  136  A    between atoms: _327  and  _330
REMARK  137  A    between atoms: _330  and  _331
REMARK  138  A    between atoms: _334  and  _336
REMARK  139  A    between atoms: _336  and  _337
REMARK  140  A    between atoms: _336  and  _339
REMARK  141  A    between atoms: _339  and  _340
REMARK                            x       y       z     vdW  Elec       q    Type
REMARK                         _______ _______ _______ _____ _____    ______ ____
ROOT
ATOM      1  O   HOH     1      -1.315  34.747  24.294  0.00  0.00    +0.000 OA
ENDROOT
TORSDOF 0
REMARK  Name = ../refined-set-2016/2p09/2p09_pocket.pdb
REMARK  141 active torsions:
REMARK  status: ('A' for Active; 'I' for Inactive)
REMARK    1  A    between atoms: _1  and  _3
REMARK    2  A    between atoms: _3  and  _4
REMARK    3  A    between atoms: _3  and  _6
REMARK    4  A    between atoms: _8  and  _10
REMARK    5  A    between atoms: _10  and  _11
REMARK    6  A    between atoms: _10  and  _13
REMARK    7  A    between atoms: _16  and  _18
REMARK    8  A    between atoms: _18  and  _19
REMARK    9  A    between atoms: _18  and  _21
REMARK   10  A    between atoms: _21  and  _22
REMARK   11  A    between atoms: _22  and  _23
REMARK   12  A    between atoms: _23  and  _24
REMARK   13  A    between atoms: _24  and  _25
REMARK   14  A    between atoms: _30  and  _31
REMARK   15  A    between atoms: _36  and  _38
REMARK   16  A    between atoms: _38  and  _39
REMARK   17  A    between atoms: _38  and  _41
REMARK   18  A    between atoms: _41  and  _42
REMARK   19  A    between atoms: _42  and  _43
REMARK   20  A    between atoms: _43  and  _44
REMARK   21  A    between atoms: _53  and  _55
REMARK   22  A    between atoms: _55  and  _56
REMARK   23  A    between atoms: _55  and  _58
REMARK   24  A    between atoms: _58  and  _59
REMARK   25  A    between atoms: _62  and  _64
REMARK   26  A    between atoms: _64  and  _65
REMARK   27  A    between atoms: _64  and  _67
REMARK   28  A    between atoms: _67  and  _68
REMARK   29  A    between atoms: _78  and  _80
REMARK   30  A    between atoms: _80  and  _81
REMARK   31  A    between atoms: _80  and  _83
REMARK   32  A    between atoms: _83  and  _84
REMARK   33  A    between atoms: _84  and  _85
REMARK   34  A    between atoms: _85  and  _86
REMARK   35  A    between atoms: _86  and  _87
REMARK   36  A    between atoms: _91  and  _93
REMARK   37  A    between atoms: _93  and  _94
REMARK   38  A    between atoms: _93  and  _96
REMARK   39  A    between atoms: _96  and  _97
REMARK   40  A    between atoms: _97  and  _98
REMARK   41  A    between atoms: _98  and  _99
REMARK   42  A    between atoms: _99  and  _100
REMARK   43  A    between atoms: _104  and  _106
REMARK   44  A    between atoms: _106  and  _107
REMARK   45  A    between atoms: _106  and  _109
REMARK   46  A    between atoms: _109  and  _110
REMARK   47  A    between atoms: _110  and  _111
REMARK   48  A    between atoms: _111  and  _112
REMARK   49  A    between atoms: _121  and  _123
REMARK   50  A    between atoms: _123  and  _124
REMARK   51  A    between atoms: _123  and  _126
REMARK   52  A    between atoms: _126  and  _127
REMARK   53  A    between atoms: _130  and  _132
REMARK   54  A    between atoms: _132  and  _133
REMARK   55  A    between atoms: _132  and  _135
REMARK   56  A    between atoms: _135  and  _136
REMARK   57  A    between atoms: _141  and  _142
REMARK   58  A    between atoms: _144  and  _146
REMARK   59  A    between atoms: _146  and  _147
REMARK   60  A    between atoms: _146  and  _149
REMARK   61  A    between atoms: _149  and  _150
REMARK   62  A    between atoms: _155  and  _157
REMARK   63  A    between atoms: _157  and  _158
REMARK   64  A    between atoms: _157  and  _160
REMARK   65  A    between atoms: _160  and  _161
REMARK   66  A    between atoms: _161  and  _162
REMARK   67  A    between atoms: _164  and  _166
REMARK   68  A    between atoms: _166  and  _167
REMARK   69  A    between atoms: _166  and  _169
REMARK   70  A    between atoms: _171  and  _173
REMARK   71  A    between atoms: _173  and  _174
REMARK   72  A    between atoms: _173  and  _176
REMARK   73  A    between atoms: _176  and  _177
REMARK   74  A    between atoms: _177  and  _178
REMARK   75  A    between atoms: _178  and  _179
REMARK   76  A    between atoms: _179  and  _180
REMARK   77  A    between atoms: _184  and  _186
REMARK   78  A    between atoms: _186  and  _187
REMARK   79  A    between atoms: _186  and  _189
REMARK   80  A    between atoms: _189  and  _190
REMARK   81  A    between atoms: _193  and  _195
REMARK   82  A    between atoms: _195  and  _196
REMARK   83  A    between atoms: _195  and  _198
REMARK   84  A    between atoms: _200  and  _202
REMARK   85  A    between atoms: _202  and  _203
REMARK   86  A    between atoms: _202  and  _205
REMARK   87  A    between atoms: _205  and  _206
REMARK   88  A    between atoms: _212  and  _214
REMARK   89  A    between atoms: _214  and  _215
REMARK   90  A    between atoms: _214  and  _217
REMARK   91  A    between atoms: _217  and  _218
REMARK   92  A    between atoms: _223  and  _225
REMARK   93  A    between atoms: _225  and  _226
REMARK   94  A    between atoms: _225  and  _228
REMARK   95  A    between atoms: _228  and  _229
REMARK   96  A    between atoms: _231  and  _233
REMARK   97  A    between atoms: _233  and  _234
REMARK   98  A    between atoms: _233  and  _236
REMARK   99  A    between atoms: _236  and  _237
REMARK  100  A    between atoms: _240  and  _242
REMARK  101  A    between atoms: _242  and  _243
REMARK  102  A    between atoms: _242  and  _245
REMARK  103  A    between atoms: _245  and  _246
REMARK  104  A    between atoms: _249  and  _251
REMARK  105  A    between atoms: _251  and  _252
REMARK  106  A    between atoms: _251  and  _254
REMARK  107  A    between atoms: _254  and  _255
REMARK  108  A    between atoms: _258  and  _260
REMARK  109  A    between atoms: _260  and  _261
REMARK  110  A    between atoms: _260  and  _263
REMARK  111  A    between atoms: _263  and  _264
REMARK  112  A    between atoms: _269  and  _270
REMARK  113  A    between atoms: _272  and  _274
REMARK  114  A    between atoms: _274  and  _275
REMARK  115  A    between atoms: _274  and  _277
REMARK  116  A    between atoms: _277  and  _278
REMARK  117  A    between atoms: _283  and  _285
REMARK  118  A    between atoms: _285  and  _286
REMARK  119  A    between atoms: _288  and  _290
REMARK  120  A    between atoms: _290  and  _291
REMARK  121  A    between atoms: _290  and  _293
REMARK  122  A    between atoms: _293  and  _294
REMARK  123  A    between atoms: _299  and  _301
REMARK  124  A    between atoms: _301  and  _302
REMARK  125  A    between atoms: _301  and  _304
REMARK  126  A    between atoms: _307  and  _309
REMARK  127  A    between atoms: _309  and  _310
REMARK  128  A    between atoms: _309  and  _312
REMARK  129  A    between atoms: _312  and  _313
REMARK  130  A    between atoms: _316  and  _318
REMARK  131  A    between atoms: _318  and  _319
REMARK  132  A    between atoms: _318  and  _321
REMARK  133  A    between atoms: _321  and  _322
REMARK  134  A    between atoms: _325  and  _327
REMARK  135  A    between atoms: _327  and  _328
REMARK  136  A    between atoms: _327  and  _330
REMARK  137  A    between atoms: _330  and  _331
REMARK  138  A    between atoms: _334  and  _336
REMARK  139  A    between atoms: _336  and  _337
REMARK  140  A    between atoms: _336  and  _339
REMARK  141  A    between atoms: _339  and  _340
REMARK                            x       y       z     vdW  Elec       q    Type
REMARK                         _______ _______ _______ _____ _____    ______ ____
ROOT
ATOM      1  O   HOH     1      -0.460  36.118  20.258  0.00  0.00    +0.000 OA
ENDROOT
TORSDOF 0
REMARK  Name = ../refined-set-2016/2p09/2p09_pocket.pdb
REMARK  141 active torsions:
REMARK  status: ('A' for Active; 'I' for Inactive)
REMARK    1  A    between atoms: _1  and  _3
REMARK    2  A    between atoms: _3  and  _4
REMARK    3  A    between atoms: _3  and  _6
REMARK    4  A    between atoms: _8  and  _10
REMARK    5  A    between atoms: _10  and  _11
REMARK    6  A    between atoms: _10  and  _13
REMARK    7  A    between atoms: _16  and  _18
REMARK    8  A    between atoms: _18  and  _19
REMARK    9  A    between atoms: _18  and  _21
REMARK   10  A    between atoms: _21  and  _22
REMARK   11  A    between atoms: _22  and  _23
REMARK   12  A    between atoms: _23  and  _24
REMARK   13  A    between atoms: _24  and  _25
REMARK   14  A    between atoms: _30  and  _31
REMARK   15  A    between atoms: _36  and  _38
REMARK   16  A    between atoms: _38  and  _39
REMARK   17  A    between atoms: _38  and  _41
REMARK   18  A    between atoms: _41  and  _42
REMARK   19  A    between atoms: _42  and  _43
REMARK   20  A    between atoms: _43  and  _44
REMARK   21  A    between atoms: _53  and  _55
REMARK   22  A    between atoms: _55  and  _56
REMARK   23  A    between atoms: _55  and  _58
REMARK   24  A    between atoms: _58  and  _59
REMARK   25  A    between atoms: _62  and  _64
REMARK   26  A    between atoms: _64  and  _65
REMARK   27  A    between atoms: _64  and  _67
REMARK   28  A    between atoms: _67  and  _68
REMARK   29  A    between atoms: _78  and  _80
REMARK   30  A    between atoms: _80  and  _81
REMARK   31  A    between atoms: _80  and  _83
REMARK   32  A    between atoms: _83  and  _84
REMARK   33  A    between atoms: _84  and  _85
REMARK   34  A    between atoms: _85  and  _86
REMARK   35  A    between atoms: _86  and  _87
REMARK   36  A    between atoms: _91  and  _93
REMARK   37  A    between atoms: _93  and  _94
REMARK   38  A    between atoms: _93  and  _96
REMARK   39  A    between atoms: _96  and  _97
REMARK   40  A    between atoms: _97  and  _98
REMARK   41  A    between atoms: _98  and  _99
REMARK   42  A    between atoms: _99  and  _100
REMARK   43  A    between atoms: _104  and  _106
REMARK   44  A    between atoms: _106  and  _107
REMARK   45  A    between atoms: _106  and  _109
REMARK   46  A    between atoms: _109  and  _110
REMARK   47  A    between atoms: _110  and  _111
REMARK   48  A    between atoms: _111  and  _112
REMARK   49  A    between atoms: _121  and  _123
REMARK   50  A    between atoms: _123  and  _124
REMARK   51  A    between atoms: _123  and  _126
REMARK   52  A    between atoms: _126  and  _127
REMARK   53  A    between atoms: _130  and  _132
REMARK   54  A    between atoms: _132  and  _133
REMARK   55  A    between atoms: _132  and  _135
REMARK   56  A    between atoms: _135  and  _136
REMARK   57  A    between atoms: _141  and  _142
REMARK   58  A    between atoms: _144  and  _146
REMARK   59  A    between atoms: _146  and  _147
REMARK   60  A    between atoms: _146  and  _149
REMARK   61  A    between atoms: _149  and  _150
REMARK   62  A    between atoms: _155  and  _157
REMARK   63  A    between atoms: _157  and  _158
REMARK   64  A    between atoms: _157  and  _160
REMARK   65  A    between atoms: _160  and  _161
REMARK   66  A    between atoms: _161  and  _162
REMARK   67  A    between atoms: _164  and  _166
REMARK   68  A    between atoms: _166  and  _167
REMARK   69  A    between atoms: _166  and  _169
REMARK   70  A    between atoms: _171  and  _173
REMARK   71  A    between atoms: _173  and  _174
REMARK   72  A    between atoms: _173  and  _176
REMARK   73  A    between atoms: _176  and  _177
REMARK   74  A    between atoms: _177  and  _178
REMARK   75  A    between atoms: _178  and  _179
REMARK   76  A    between atoms: _179  and  _180
REMARK   77  A    between atoms: _184  and  _186
REMARK   78  A    between atoms: _186  and  _187
REMARK   79  A    between atoms: _186  and  _189
REMARK   80  A    between atoms: _189  and  _190
REMARK   81  A    between atoms: _193  and  _195
REMARK   82  A    between atoms: _195  and  _196
REMARK   83  A    between atoms: _195  and  _198
REMARK   84  A    between atoms: _200  and  _202
REMARK   85  A    between atoms: _202  and  _203
REMARK   86  A    between atoms: _202  and  _205
REMARK   87  A    between atoms: _205  and  _206
REMARK   88  A    between atoms: _212  and  _214
REMARK   89  A    between atoms: _214  and  _215
REMARK   90  A    between atoms: _214  and  _217
REMARK   91  A    between atoms: _217  and  _218
REMARK   92  A    between atoms: _223  and  _225
REMARK   93  A    between atoms: _225  and  _226
REMARK   94  A    between atoms: _225  and  _228
REMARK   95  A    between atoms: _228  and  _229
REMARK   96  A    between atoms: _231  and  _233
REMARK   97  A    between atoms: _233  and  _234
REMARK   98  A    between atoms: _233  and  _236
REMARK   99  A    between atoms: _236  and  _237
REMARK  100  A    between atoms: _240  and  _242
REMARK  101  A    between atoms: _242  and  _243
REMARK  102  A    between atoms: _242  and  _245
REMARK  103  A    between atoms: _245  and  _246
REMARK  104  A    between atoms: _249  and  _251
REMARK  105  A    between atoms: _251  and  _252
REMARK  106  A    between atoms: _251  and  _254
REMARK  107  A    between atoms: _254  and  _255
REMARK  108  A    between atoms: _258  and  _260
REMARK  109  A    between atoms: _260  and  _261
REMARK  110  A    between atoms: _260  and  _263
REMARK  111  A    between atoms: _263  and  _264
REMARK  112  A    between atoms: _269  and  _270
REMARK  113  A    between atoms: _272  and  _274
REMARK  114  A    between atoms: _274  and  _275
REMARK  115  A    between atoms: _274  and  _277
REMARK  116  A    between atoms: _277  and  _278
REMARK  117  A    between atoms: _283  and  _285
REMARK  118  A    between atoms: _285  and  _286
REMARK  119  A    between atoms: _288  and  _290
REMARK  120  A    between atoms: _290  and  _291
REMARK  121  A    between atoms: _290  and  _293
REMARK  122  A    between atoms: _293  and  _294
REMARK  123  A    between atoms: _299  and  _301
REMARK  124  A    between atoms: _301  and  _302
REMARK  125  A    between atoms: _301  and  _304
REMARK  126  A    between atoms: _307  and  _309
REMARK  127  A    between atoms: _309  and  _310
REMARK  128  A    between atoms: _309  and  _312
REMARK  129  A    between atoms: _312  and  _313
REMARK  130  A    between atoms: _316  and  _318
REMARK  131  A    between atoms: _318  and  _319
REMARK  132  A    between atoms: _318  and  _321
REMARK  133  A    between atoms: _321  and  _322
REMARK  134  A    between atoms: _325  and  _327
REMARK  135  A    between atoms: _327  and  _328
REMARK  136  A    between atoms: _327  and  _330
REMARK  137  A    between atoms: _330  and  _331
REMARK  138  A    between atoms: _334  and  _336
REMARK  139  A    between atoms: _336  and  _337
REMARK  140  A    between atoms: _336  and  _339
REMARK  141  A    between atoms: _339  and  _340
REMARK                            x       y       z     vdW  Elec       q    Type
REMARK                         _______ _______ _______ _____ _____    ______ ____
ROOT
ATOM      1  O   HOH     1       5.155  28.868  14.031  0.00  0.00    +0.000 OA
ENDROOT
TORSDOF 0
REMARK  Name = ../refined-set-2016/2p09/2p09_pocket.pdb
REMARK  141 active torsions:
REMARK  status: ('A' for Active; 'I' for Inactive)
REMARK    1  A    between atoms: _1  and  _3
REMARK    2  A    between atoms: _3  and  _4
REMARK    3  A    between atoms: _3  and  _6
REMARK    4  A    between atoms: _8  and  _10
REMARK    5  A    between atoms: _10  and  _11
REMARK    6  A    between atoms: _10  and  _13
REMARK    7  A    between atoms: _16  and  _18
REMARK    8  A    between atoms: _18  and  _19
REMARK    9  A    between atoms: _18  and  _21
REMARK   10  A    between atoms: _21  and  _22
REMARK   11  A    between atoms: _22  and  _23
REMARK   12  A    between atoms: _23  and  _24
REMARK   13  A    between atoms: _24  and  _25
REMARK   14  A    between atoms: _30  and  _31
REMARK   15  A    between atoms: _36  and  _38
REMARK   16  A    between atoms: _38  and  _39
REMARK   17  A    between atoms: _38  and  _41
REMARK   18  A    between atoms: _41  and  _42
REMARK   19  A    between atoms: _42  and  _43
REMARK   20  A    between atoms: _43  and  _44
REMARK   21  A    between atoms: _53  and  _55
REMARK   22  A    between atoms: _55  and  _56
REMARK   23  A    between atoms: _55  and  _58
REMARK   24  A    between atoms: _58  and  _59
REMARK   25  A    between atoms: _62  and  _64
REMARK   26  A    between atoms: _64  and  _65
REMARK   27  A    between atoms: _64  and  _67
REMARK   28  A    between atoms: _67  and  _68
REMARK   29  A    between atoms: _78  and  _80
REMARK   30  A    between atoms: _80  and  _81
REMARK   31  A    between atoms: _80  and  _83
REMARK   32  A    between atoms: _83  and  _84
REMARK   33  A    between atoms: _84  and  _85
REMARK   34  A    between atoms: _85  and  _86
REMARK   35  A    between atoms: _86  and  _87
REMARK   36  A    between atoms: _91  and  _93
REMARK   37  A    between atoms: _93  and  _94
REMARK   38  A    between atoms: _93  and  _96
REMARK   39  A    between atoms: _96  and  _97
REMARK   40  A    between atoms: _97  and  _98
REMARK   41  A    between atoms: _98  and  _99
REMARK   42  A    between atoms: _99  and  _100
REMARK   43  A    between atoms: _104  and  _106
REMARK   44  A    between atoms: _106  and  _107
REMARK   45  A    between atoms: _106  and  _109
REMARK   46  A    between atoms: _109  and  _110
REMARK   47  A    between atoms: _110  and  _111
REMARK   48  A    between atoms: _111  and  _112
REMARK   49  A    between atoms: _121  and  _123
REMARK   50  A    between atoms: _123  and  _124
REMARK   51  A    between atoms: _123  and  _126
REMARK   52  A    between atoms: _126  and  _127
REMARK   53  A    between atoms: _130  and  _132
REMARK   54  A    between atoms: _132  and  _133
REMARK   55  A    between atoms: _132  and  _135
REMARK   56  A    between atoms: _135  and  _136
REMARK   57  A    between atoms: _141  and  _142
REMARK   58  A    between atoms: _144  and  _146
REMARK   59  A    between atoms: _146  and  _147
REMARK   60  A    between atoms: _146  and  _149
REMARK   61  A    between atoms: _149  and  _150
REMARK   62  A    between atoms: _155  and  _157
REMARK   63  A    between atoms: _157  and  _158
REMARK   64  A    between atoms: _157  and  _160
REMARK   65  A    between atoms: _160  and  _161
REMARK   66  A    between atoms: _161  and  _162
REMARK   67  A    between atoms: _164  and  _166
REMARK   68  A    between atoms: _166  and  _167
REMARK   69  A    between atoms: _166  and  _169
REMARK   70  A    between atoms: _171  and  _173
REMARK   71  A    between atoms: _173  and  _174
REMARK   72  A    between atoms: _173  and  _176
REMARK   73  A    between atoms: _176  and  _177
REMARK   74  A    between atoms: _177  and  _178
REMARK   75  A    between atoms: _178  and  _179
REMARK   76  A    between atoms: _179  and  _180
REMARK   77  A    between atoms: _184  and  _186
REMARK   78  A    between atoms: _186  and  _187
REMARK   79  A    between atoms: _186  and  _189
REMARK   80  A    between atoms: _189  and  _190
REMARK   81  A    between atoms: _193  and  _195
REMARK   82  A    between atoms: _195  and  _196
REMARK   83  A    between atoms: _195  and  _198
REMARK   84  A    between atoms: _200  and  _202
REMARK   85  A    between atoms: _202  and  _203
REMARK   86  A    between atoms: _202  and  _205
REMARK   87  A    between atoms: _205  and  _206
REMARK   88  A    between atoms: _212  and  _214
REMARK   89  A    between atoms: _214  and  _215
REMARK   90  A    between atoms: _214  and  _217
REMARK   91  A    between atoms: _217  and  _218
REMARK   92  A    between atoms: _223  and  _225
REMARK   93  A    between atoms: _225  and  _226
REMARK   94  A    between atoms: _225  and  _228
REMARK   95  A    between atoms: _228  and  _229
REMARK   96  A    between atoms: _231  and  _233
REMARK   97  A    between atoms: _233  and  _234
REMARK   98  A    between atoms: _233  and  _236
REMARK   99  A    between atoms: _236  and  _237
REMARK  100  A    between atoms: _240  and  _242
REMARK  101  A    between atoms: _242  and  _243
REMARK  102  A    between atoms: _242  and  _245
REMARK  103  A    between atoms: _245  and  _246
REMARK  104  A    between atoms: _249  and  _251
REMARK  105  A    between atoms: _251  and  _252
REMARK  106  A    between atoms: _251  and  _254
REMARK  107  A    between atoms: _254  and  _255
REMARK  108  A    between atoms: _258  and  _260
REMARK  109  A    between atoms: _260  and  _261
REMARK  110  A    between atoms: _260  and  _263
REMARK  111  A    between atoms: _263  and  _264
REMARK  112  A    between atoms: _269  and  _270
REMARK  113  A    between atoms: _272  and  _274
REMARK  114  A    between atoms: _274  and  _275
REMARK  115  A    between atoms: _274  and  _277
REMARK  116  A    between atoms: _277  and  _278
REMARK  117  A    between atoms: _283  and  _285
REMARK  118  A    between atoms: _285  and  _286
REMARK  119  A    between atoms: _288  and  _290
REMARK  120  A    between atoms: _290  and  _291
REMARK  121  A    between atoms: _290  and  _293
REMARK  122  A    between atoms: _293  and  _294
REMARK  123  A    between atoms: _299  and  _301
REMARK  124  A    between atoms: _301  and  _302
REMARK  125  A    between atoms: _301  and  _304
REMARK  126  A    between atoms: _307  and  _309
REMARK  127  A    between atoms: _309  and  _310
REMARK  128  A    between atoms: _309  and  _312
REMARK  129  A    between atoms: _312  and  _313
REMARK  130  A    between atoms: _316  and  _318
REMARK  131  A    between atoms: _318  and  _319
REMARK  132  A    between atoms: _318  and  _321
REMARK  133  A    between atoms: _321  and  _322
REMARK  134  A    between atoms: _325  and  _327
REMARK  135  A    between atoms: _327  and  _328
REMARK  136  A    between atoms: _327  and  _330
REMARK  137  A    between atoms: _330  and  _331
REMARK  138  A    between atoms: _334  and  _336
REMARK  139  A    between atoms: _336  and  _337
REMARK  140  A    between atoms: _336  and  _339
REMARK  141  A    between atoms: _339  and  _340
REMARK                            x       y       z     vdW  Elec       q    Type
REMARK                         _______ _______ _______ _____ _____    ______ ____
ROOT
ATOM      1  O   HOH     1      -1.592  32.381  22.844  0.00  0.00    +0.000 OA
ENDROOT
TORSDOF 0
REMARK  Name = ../refined-set-2016/2p09/2p09_pocket.pdb
REMARK  141 active torsions:
REMARK  status: ('A' for Active; 'I' for Inactive)
REMARK    1  A    between atoms: _1  and  _3
REMARK    2  A    between atoms: _3  and  _4
REMARK    3  A    between atoms: _3  and  _6
REMARK    4  A    between atoms: _8  and  _10
REMARK    5  A    between atoms: _10  and  _11
REMARK    6  A    between atoms: _10  and  _13
REMARK    7  A    between atoms: _16  and  _18
REMARK    8  A    between atoms: _18  and  _19
REMARK    9  A    between atoms: _18  and  _21
REMARK   10  A    between atoms: _21  and  _22
REMARK   11  A    between atoms: _22  and  _23
REMARK   12  A    between atoms: _23  and  _24
REMARK   13  A    between atoms: _24  and  _25
REMARK   14  A    between atoms: _30  and  _31
REMARK   15  A    between atoms: _36  and  _38
REMARK   16  A    between atoms: _38  and  _39
REMARK   17  A    between atoms: _38  and  _41
REMARK   18  A    between atoms: _41  and  _42
REMARK   19  A    between atoms: _42  and  _43
REMARK   20  A    between atoms: _43  and  _44
REMARK   21  A    between atoms: _53  and  _55
REMARK   22  A    between atoms: _55  and  _56
REMARK   23  A    between atoms: _55  and  _58
REMARK   24  A    between atoms: _58  and  _59
REMARK   25  A    between atoms: _62  and  _64
REMARK   26  A    between atoms: _64  and  _65
REMARK   27  A    between atoms: _64  and  _67
REMARK   28  A    between atoms: _67  and  _68
REMARK   29  A    between atoms: _78  and  _80
REMARK   30  A    between atoms: _80  and  _81
REMARK   31  A    between atoms: _80  and  _83
REMARK   32  A    between atoms: _83  and  _84
REMARK   33  A    between atoms: _84  and  _85
REMARK   34  A    between atoms: _85  and  _86
REMARK   35  A    between atoms: _86  and  _87
REMARK   36  A    between atoms: _91  and  _93
REMARK   37  A    between atoms: _93  and  _94
REMARK   38  A    between atoms: _93  and  _96
REMARK   39  A    between atoms: _96  and  _97
REMARK   40  A    between atoms: _97  and  _98
REMARK   41  A    between atoms: _98  and  _99
REMARK   42  A    between atoms: _99  and  _100
REMARK   43  A    between atoms: _104  and  _106
REMARK   44  A    between atoms: _106  and  _107
REMARK   45  A    between atoms: _106  and  _109
REMARK   46  A    between atoms: _109  and  _110
REMARK   47  A    between atoms: _110  and  _111
REMARK   48  A    between atoms: _111  and  _112
REMARK   49  A    between atoms: _121  and  _123
REMARK   50  A    between atoms: _123  and  _124
REMARK   51  A    between atoms: _123  and  _126
REMARK   52  A    between atoms: _126  and  _127
REMARK   53  A    between atoms: _130  and  _132
REMARK   54  A    between atoms: _132  and  _133
REMARK   55  A    between atoms: _132  and  _135
REMARK   56  A    between atoms: _135  and  _136
REMARK   57  A    between atoms: _141  and  _142
REMARK   58  A    between atoms: _144  and  _146
REMARK   59  A    between atoms: _146  and  _147
REMARK   60  A    between atoms: _146  and  _149
REMARK   61  A    between atoms: _149  and  _150
REMARK   62  A    between atoms: _155  and  _157
REMARK   63  A    between atoms: _157  and  _158
REMARK   64  A    between atoms: _157  and  _160
REMARK   65  A    between atoms: _160  and  _161
REMARK   66  A    between atoms: _161  and  _162
REMARK   67  A    between atoms: _164  and  _166
REMARK   68  A    between atoms: _166  and  _167
REMARK   69  A    between atoms: _166  and  _169
REMARK   70  A    between atoms: _171  and  _173
REMARK   71  A    between atoms: _173  and  _174
REMARK   72  A    between atoms: _173  and  _176
REMARK   73  A    between atoms: _176  and  _177
REMARK   74  A    between atoms: _177  and  _178
REMARK   75  A    between atoms: _178  and  _179
REMARK   76  A    between atoms: _179  and  _180
REMARK   77  A    between atoms: _184  and  _186
REMARK   78  A    between atoms: _186  and  _187
REMARK   79  A    between atoms: _186  and  _189
REMARK   80  A    between atoms: _189  and  _190
REMARK   81  A    between atoms: _193  and  _195
REMARK   82  A    between atoms: _195  and  _196
REMARK   83  A    between atoms: _195  and  _198
REMARK   84  A    between atoms: _200  and  _202
REMARK   85  A    between atoms: _202  and  _203
REMARK   86  A    between atoms: _202  and  _205
REMARK   87  A    between atoms: _205  and  _206
REMARK   88  A    between atoms: _212  and  _214
REMARK   89  A    between atoms: _214  and  _215
REMARK   90  A    between atoms: _214  and  _217
REMARK   91  A    between atoms: _217  and  _218
REMARK   92  A    between atoms: _223  and  _225
REMARK   93  A    between atoms: _225  and  _226
REMARK   94  A    between atoms: _225  and  _228
REMARK   95  A    between atoms: _228  and  _229
REMARK   96  A    between atoms: _231  and  _233
REMARK   97  A    between atoms: _233  and  _234
REMARK   98  A    between atoms: _233  and  _236
REMARK   99  A    between atoms: _236  and  _237
REMARK  100  A    between atoms: _240  and  _242
REMARK  101  A    between atoms: _242  and  _243
REMARK  102  A    between atoms: _242  and  _245
REMARK  103  A    between atoms: _245  and  _246
REMARK  104  A    between atoms: _249  and  _251
REMARK  105  A    between atoms: _251  and  _252
REMARK  106  A    between atoms: _251  and  _254
REMARK  107  A    between atoms: _254  and  _255
REMARK  108  A    between atoms: _258  and  _260
REMARK  109  A    between atoms: _260  and  _261
REMARK  110  A    between atoms: _260  and  _263
REMARK  111  A    between atoms: _263  and  _264
REMARK  112  A    between atoms: _269  and  _270
REMARK  113  A    between atoms: _272  and  _274
REMARK  114  A    between atoms: _274  and  _275
REMARK  115  A    between atoms: _274  and  _277
REMARK  116  A    between atoms: _277  and  _278
REMARK  117  A    between atoms: _283  and  _285
REMARK  118  A    between atoms: _285  and  _286
REMARK  119  A    between atoms: _288  and  _290
REMARK  120  A    between atoms: _290  and  _291
REMARK  121  A    between atoms: _290  and  _293
REMARK  122  A    between atoms: _293  and  _294
REMARK  123  A    between atoms: _299  and  _301
REMARK  124  A    between atoms: _301  and  _302
REMARK  125  A    between atoms: _301  and  _304
REMARK  126  A    between atoms: _307  and  _309
REMARK  127  A    between atoms: _309  and  _310
REMARK  128  A    between atoms: _309  and  _312
REMARK  129  A    between atoms: _312  and  _313
REMARK  130  A    between atoms: _316  and  _318
REMARK  131  A    between atoms: _318  and  _319
REMARK  132  A    between atoms: _318  and  _321
REMARK  133  A    between atoms: _321  and  _322
REMARK  134  A    between atoms: _325  and  _327
REMARK  135  A    between atoms: _327  and  _328
REMARK  136  A    between atoms: _327  and  _330
REMARK  137  A    between atoms: _330  and  _331
REMARK  138  A    between atoms: _334  and  _336
REMARK  139  A    between atoms: _336  and  _337
REMARK  140  A    between atoms: _336  and  _339
REMARK  141  A    between atoms: _339  and  _340
REMARK                            x       y       z     vdW  Elec       q    Type
REMARK                         _______ _______ _______ _____ _____    ______ ____
ROOT
ATOM      1  O   HOH     1      -5.026  36.903  18.365  0.00  0.00    +0.000 OA
ENDROOT
TORSDOF 0
REMARK  Name = ../refined-set-2016/2p09/2p09_pocket.pdb
REMARK  141 active torsions:
REMARK  status: ('A' for Active; 'I' for Inactive)
REMARK    1  A    between atoms: _1  and  _3
REMARK    2  A    between atoms: _3  and  _4
REMARK    3  A    between atoms: _3  and  _6
REMARK    4  A    between atoms: _8  and  _10
REMARK    5  A    between atoms: _10  and  _11
REMARK    6  A    between atoms: _10  and  _13
REMARK    7  A    between atoms: _16  and  _18
REMARK    8  A    between atoms: _18  and  _19
REMARK    9  A    between atoms: _18  and  _21
REMARK   10  A    between atoms: _21  and  _22
REMARK   11  A    between atoms: _22  and  _23
REMARK   12  A    between atoms: _23  and  _24
REMARK   13  A    between atoms: _24  and  _25
REMARK   14  A    between atoms: _30  and  _31
REMARK   15  A    between atoms: _36  and  _38
REMARK   16  A    between atoms: _38  and  _39
REMARK   17  A    between atoms: _38  and  _41
REMARK   18  A    between atoms: _41  and  _42
REMARK   19  A    between atoms: _42  and  _43
REMARK   20  A    between atoms: _43  and  _44
REMARK   21  A    between atoms: _53  and  _55
REMARK   22  A    between atoms: _55  and  _56
REMARK   23  A    between atoms: _55  and  _58
REMARK   24  A    between atoms: _58  and  _59
REMARK   25  A    between atoms: _62  and  _64
REMARK   26  A    between atoms: _64  and  _65
REMARK   27  A    between atoms: _64  and  _67
REMARK   28  A    between atoms: _67  and  _68
REMARK   29  A    between atoms: _78  and  _80
REMARK   30  A    between atoms: _80  and  _81
REMARK   31  A    between atoms: _80  and  _83
REMARK   32  A    between atoms: _83  and  _84
REMARK   33  A    between atoms: _84  and  _85
REMARK   34  A    between atoms: _85  and  _86
REMARK   35  A    between atoms: _86  and  _87
REMARK   36  A    between atoms: _91  and  _93
REMARK   37  A    between atoms: _93  and  _94
REMARK   38  A    between atoms: _93  and  _96
REMARK   39  A    between atoms: _96  and  _97
REMARK   40  A    between atoms: _97  and  _98
REMARK   41  A    between atoms: _98  and  _99
REMARK   42  A    between atoms: _99  and  _100
REMARK   43  A    between atoms: _104  and  _106
REMARK   44  A    between atoms: _106  and  _107
REMARK   45  A    between atoms: _106  and  _109
REMARK   46  A    between atoms: _109  and  _110
REMARK   47  A    between atoms: _110  and  _111
REMARK   48  A    between atoms: _111  and  _112
REMARK   49  A    between atoms: _121  and  _123
REMARK   50  A    between atoms: _123  and  _124
REMARK   51  A    between atoms: _123  and  _126
REMARK   52  A    between atoms: _126  and  _127
REMARK   53  A    between atoms: _130  and  _132
REMARK   54  A    between atoms: _132  and  _133
REMARK   55  A    between atoms: _132  and  _135
REMARK   56  A    between atoms: _135  and  _136
REMARK   57  A    between atoms: _141  and  _142
REMARK   58  A    between atoms: _144  and  _146
REMARK   59  A    between atoms: _146  and  _147
REMARK   60  A    between atoms: _146  and  _149
REMARK   61  A    between atoms: _149  and  _150
REMARK   62  A    between atoms: _155  and  _157
REMARK   63  A    between atoms: _157  and  _158
REMARK   64  A    between atoms: _157  and  _160
REMARK   65  A    between atoms: _160  and  _161
REMARK   66  A    between atoms: _161  and  _162
REMARK   67  A    between atoms: _164  and  _166
REMARK   68  A    between atoms: _166  and  _167
REMARK   69  A    between atoms: _166  and  _169
REMARK   70  A    between atoms: _171  and  _173
REMARK   71  A    between atoms: _173  and  _174
REMARK   72  A    between atoms: _173  and  _176
REMARK   73  A    between atoms: _176  and  _177
REMARK   74  A    between atoms: _177  and  _178
REMARK   75  A    between atoms: _178  and  _179
REMARK   76  A    between atoms: _179  and  _180
REMARK   77  A    between atoms: _184  and  _186
REMARK   78  A    between atoms: _186  and  _187
REMARK   79  A    between atoms: _186  and  _189
REMARK   80  A    between atoms: _189  and  _190
REMARK   81  A    between atoms: _193  and  _195
REMARK   82  A    between atoms: _195  and  _196
REMARK   83  A    between atoms: _195  and  _198
REMARK   84  A    between atoms: _200  and  _202
REMARK   85  A    between atoms: _202  and  _203
REMARK   86  A    between atoms: _202  and  _205
REMARK   87  A    between atoms: _205  and  _206
REMARK   88  A    between atoms: _212  and  _214
REMARK   89  A    between atoms: _214  and  _215
REMARK   90  A    between atoms: _214  and  _217
REMARK   91  A    between atoms: _217  and  _218
REMARK   92  A    between atoms: _223  and  _225
REMARK   93  A    between atoms: _225  and  _226
REMARK   94  A    between atoms: _225  and  _228
REMARK   95  A    between atoms: _228  and  _229
REMARK   96  A    between atoms: _231  and  _233
REMARK   97  A    between atoms: _233  and  _234
REMARK   98  A    between atoms: _233  and  _236
REMARK   99  A    between atoms: _236  and  _237
REMARK  100  A    between atoms: _240  and  _242
REMARK  101  A    between atoms: _242  and  _243
REMARK  102  A    between atoms: _242  and  _245
REMARK  103  A    between atoms: _245  and  _246
REMARK  104  A    between atoms: _249  and  _251
REMARK  105  A    between atoms: _251  and  _252
REMARK  106  A    between atoms: _251  and  _254
REMARK  107  A    between atoms: _254  and  _255
REMARK  108  A    between atoms: _258  and  _260
REMARK  109  A    between atoms: _260  and  _261
REMARK  110  A    between atoms: _260  and  _263
REMARK  111  A    between atoms: _263  and  _264
REMARK  112  A    between atoms: _269  and  _270
REMARK  113  A    between atoms: _272  and  _274
REMARK  114  A    between atoms: _274  and  _275
REMARK  115  A    between atoms: _274  and  _277
REMARK  116  A    between atoms: _277  and  _278
REMARK  117  A    between atoms: _283  and  _285
REMARK  118  A    between atoms: _285  and  _286
REMARK  119  A    between atoms: _288  and  _290
REMARK  120  A    between atoms: _290  and  _291
REMARK  121  A    between atoms: _290  and  _293
REMARK  122  A    between atoms: _293  and  _294
REMARK  123  A    between atoms: _299  and  _301
REMARK  124  A    between atoms: _301  and  _302
REMARK  125  A    between atoms: _301  and  _304
REMARK  126  A    between atoms: _307  and  _309
REMARK  127  A    between atoms: _309  and  _310
REMARK  128  A    between atoms: _309  and  _312
REMARK  129  A    between atoms: _312  and  _313
REMARK  130  A    between atoms: _316  and  _318
REMARK  131  A    between atoms: _318  and  _319
REMARK  132  A    between atoms: _318  and  _321
REMARK  133  A    between atoms: _321  and  _322
REMARK  134  A    between atoms: _325  and  _327
REMARK  135  A    between atoms: _327  and  _328
REMARK  136  A    between atoms: _327  and  _330
REMARK  137  A    between atoms: _330  and  _331
REMARK  138  A    between atoms: _334  and  _336
REMARK  139  A    between atoms: _336  and  _337
REMARK  140  A    between atoms: _336  and  _339
REMARK  141  A    between atoms: _339  and  _340
REMARK                            x       y       z     vdW  Elec       q    Type
REMARK                         _______ _______ _______ _____ _____    ______ ____
ROOT
ATOM      1  O   HOH     1       8.791  27.646  16.564  0.00  0.00    +0.000 OA
ENDROOT
TORSDOF 0
REMARK  Name = ../refined-set-2016/2p09/2p09_pocket.pdb
REMARK  141 active torsions:
REMARK  status: ('A' for Active; 'I' for Inactive)
REMARK    1  A    between atoms: _1  and  _3
REMARK    2  A    between atoms: _3  and  _4
REMARK    3  A    between atoms: _3  and  _6
REMARK    4  A    between atoms: _8  and  _10
REMARK    5  A    between atoms: _10  and  _11
REMARK    6  A    between atoms: _10  and  _13
REMARK    7  A    between atoms: _16  and  _18
REMARK    8  A    between atoms: _18  and  _19
REMARK    9  A    between atoms: _18  and  _21
REMARK   10  A    between atoms: _21  and  _22
REMARK   11  A    between atoms: _22  and  _23
REMARK   12  A    between atoms: _23  and  _24
REMARK   13  A    between atoms: _24  and  _25
REMARK   14  A    between atoms: _30  and  _31
REMARK   15  A    between atoms: _36  and  _38
REMARK   16  A    between atoms: _38  and  _39
REMARK   17  A    between atoms: _38  and  _41
REMARK   18  A    between atoms: _41  and  _42
REMARK   19  A    between atoms: _42  and  _43
REMARK   20  A    between atoms: _43  and  _44
REMARK   21  A    between atoms: _53  and  _55
REMARK   22  A    between atoms: _55  and  _56
REMARK   23  A    between atoms: _55  and  _58
REMARK   24  A    between atoms: _58  and  _59
REMARK   25  A    between atoms: _62  and  _64
REMARK   26  A    between atoms: _64  and  _65
REMARK   27  A    between atoms: _64  and  _67
REMARK   28  A    between atoms: _67  and  _68
REMARK   29  A    between atoms: _78  and  _80
REMARK   30  A    between atoms: _80  and  _81
REMARK   31  A    between atoms: _80  and  _83
REMARK   32  A    between atoms: _83  and  _84
REMARK   33  A    between atoms: _84  and  _85
REMARK   34  A    between atoms: _85  and  _86
REMARK   35  A    between atoms: _86  and  _87
REMARK   36  A    between atoms: _91  and  _93
REMARK   37  A    between atoms: _93  and  _94
REMARK   38  A    between atoms: _93  and  _96
REMARK   39  A    between atoms: _96  and  _97
REMARK   40  A    between atoms: _97  and  _98
REMARK   41  A    between atoms: _98  and  _99
REMARK   42  A    between atoms: _99  and  _100
REMARK   43  A    between atoms: _104  and  _106
REMARK   44  A    between atoms: _106  and  _107
REMARK   45  A    between atoms: _106  and  _109
REMARK   46  A    between atoms: _109  and  _110
REMARK   47  A    between atoms: _110  and  _111
REMARK   48  A    between atoms: _111  and  _112
REMARK   49  A    between atoms: _121  and  _123
REMARK   50  A    between atoms: _123  and  _124
REMARK   51  A    between atoms: _123  and  _126
REMARK   52  A    between atoms: _126  and  _127
REMARK   53  A    between atoms: _130  and  _132
REMARK   54  A    between atoms: _132  and  _133
REMARK   55  A    between atoms: _132  and  _135
REMARK   56  A    between atoms: _135  and  _136
REMARK   57  A    between atoms: _141  and  _142
REMARK   58  A    between atoms: _144  and  _146
REMARK   59  A    between atoms: _146  and  _147
REMARK   60  A    between atoms: _146  and  _149
REMARK   61  A    between atoms: _149  and  _150
REMARK   62  A    between atoms: _155  and  _157
REMARK   63  A    between atoms: _157  and  _158
REMARK   64  A    between atoms: _157  and  _160
REMARK   65  A    between atoms: _160  and  _161
REMARK   66  A    between atoms: _161  and  _162
REMARK   67  A    between atoms: _164  and  _166
REMARK   68  A    between atoms: _166  and  _167
REMARK   69  A    between atoms: _166  and  _169
REMARK   70  A    between atoms: _171  and  _173
REMARK   71  A    between atoms: _173  and  _174
REMARK   72  A    between atoms: _173  and  _176
REMARK   73  A    between atoms: _176  and  _177
REMARK   74  A    between atoms: _177  and  _178
REMARK   75  A    between atoms: _178  and  _179
REMARK   76  A    between atoms: _179  and  _180
REMARK   77  A    between atoms: _184  and  _186
REMARK   78  A    between atoms: _186  and  _187
REMARK   79  A    between atoms: _186  and  _189
REMARK   80  A    between atoms: _189  and  _190
REMARK   81  A    between atoms: _193  and  _195
REMARK   82  A    between atoms: _195  and  _196
REMARK   83  A    between atoms: _195  and  _198
REMARK   84  A    between atoms: _200  and  _202
REMARK   85  A    between atoms: _202  and  _203
REMARK   86  A    between atoms: _202  and  _205
REMARK   87  A    between atoms: _205  and  _206
REMARK   88  A    between atoms: _212  and  _214
REMARK   89  A    between atoms: _214  and  _215
REMARK   90  A    between atoms: _214  and  _217
REMARK   91  A    between atoms: _217  and  _218
REMARK   92  A    between atoms: _223  and  _225
REMARK   93  A    between atoms: _225  and  _226
REMARK   94  A    between atoms: _225  and  _228
REMARK   95  A    between atoms: _228  and  _229
REMARK   96  A    between atoms: _231  and  _233
REMARK   97  A    between atoms: _233  and  _234
REMARK   98  A    between atoms: _233  and  _236
REMARK   99  A    between atoms: _236  and  _237
REMARK  100  A    between atoms: _240  and  _242
REMARK  101  A    between atoms: _242  and  _243
REMARK  102  A    between atoms: _242  and  _245
REMARK  103  A    between atoms: _245  and  _246
REMARK  104  A    between atoms: _249  and  _251
REMARK  105  A    between atoms: _251  and  _252
REMARK  106  A    between atoms: _251  and  _254
REMARK  107  A    between atoms: _254  and  _255
REMARK  108  A    between atoms: _258  and  _260
REMARK  109  A    between atoms: _260  and  _261
REMARK  110  A    between atoms: _260  and  _263
REMARK  111  A    between atoms: _263  and  _264
REMARK  112  A    between atoms: _269  and  _270
REMARK  113  A    between atoms: _272  and  _274
REMARK  114  A    between atoms: _274  and  _275
REMARK  115  A    between atoms: _274  and  _277
REMARK  116  A    between atoms: _277  and  _278
REMARK  117  A    between atoms: _283  and  _285
REMARK  118  A    between atoms: _285  and  _286
REMARK  119  A    between atoms: _288  and  _290
REMARK  120  A    between atoms: _290  and  _291
REMARK  121  A    between atoms: _290  and  _293
REMARK  122  A    between atoms: _293  and  _294
REMARK  123  A    between atoms: _299  and  _301
REMARK  124  A    between atoms: _301  and  _302
REMARK  125  A    between atoms: _301  and  _304
REMARK  126  A    between atoms: _307  and  _309
REMARK  127  A    between atoms: _309  and  _310
REMARK  128  A    between atoms: _309  and  _312
REMARK  129  A    between atoms: _312  and  _313
REMARK  130  A    between atoms: _316  and  _318
REMARK  131  A    between atoms: _318  and  _319
REMARK  132  A    between atoms: _318  and  _321
REMARK  133  A    between atoms: _321  and  _322
REMARK  134  A    between atoms: _325  and  _327
REMARK  135  A    between atoms: _327  and  _328
REMARK  136  A    between atoms: _327  and  _330
REMARK  137  A    between atoms: _330  and  _331
REMARK  138  A    between atoms: _334  and  _336
REMARK  139  A    between atoms: _336  and  _337
REMARK  140  A    between atoms: _336  and  _339
REMARK  141  A    between atoms: _339  and  _340
REMARK                            x       y       z     vdW  Elec       q    Type
REMARK                         _______ _______ _______ _____ _____    ______ ____
ROOT
ATOM      1  O   HOH     1      -2.574  29.355  22.012  0.00  0.00    +0.000 OA
ENDROOT
TORSDOF 0
REMARK  Name = ../refined-set-2016/2p09/2p09_pocket.pdb
REMARK  141 active torsions:
REMARK  status: ('A' for Active; 'I' for Inactive)
REMARK    1  A    between atoms: _1  and  _3
REMARK    2  A    between atoms: _3  and  _4
REMARK    3  A    between atoms: _3  and  _6
REMARK    4  A    between atoms: _8  and  _10
REMARK    5  A    between atoms: _10  and  _11
REMARK    6  A    between atoms: _10  and  _13
REMARK    7  A    between atoms: _16  and  _18
REMARK    8  A    between atoms: _18  and  _19
REMARK    9  A    between atoms: _18  and  _21
REMARK   10  A    between atoms: _21  and  _22
REMARK   11  A    between atoms: _22  and  _23
REMARK   12  A    between atoms: _23  and  _24
REMARK   13  A    between atoms: _24  and  _25
REMARK   14  A    between atoms: _30  and  _31
REMARK   15  A    between atoms: _36  and  _38
REMARK   16  A    between atoms: _38  and  _39
REMARK   17  A    between atoms: _38  and  _41
REMARK   18  A    between atoms: _41  and  _42
REMARK   19  A    between atoms: _42  and  _43
REMARK   20  A    between atoms: _43  and  _44
REMARK   21  A    between atoms: _53  and  _55
REMARK   22  A    between atoms: _55  and  _56
REMARK   23  A    between atoms: _55  and  _58
REMARK   24  A    between atoms: _58  and  _59
REMARK   25  A    between atoms: _62  and  _64
REMARK   26  A    between atoms: _64  and  _65
REMARK   27  A    between atoms: _64  and  _67
REMARK   28  A    between atoms: _67  and  _68
REMARK   29  A    between atoms: _78  and  _80
REMARK   30  A    between atoms: _80  and  _81
REMARK   31  A    between atoms: _80  and  _83
REMARK   32  A    between atoms: _83  and  _84
REMARK   33  A    between atoms: _84  and  _85
REMARK   34  A    between atoms: _85  and  _86
REMARK   35  A    between atoms: _86  and  _87
REMARK   36  A    between atoms: _91  and  _93
REMARK   37  A    between atoms: _93  and  _94
REMARK   38  A    between atoms: _93  and  _96
REMARK   39  A    between atoms: _96  and  _97
REMARK   40  A    between atoms: _97  and  _98
REMARK   41  A    between atoms: _98  and  _99
REMARK   42  A    between atoms: _99  and  _100
REMARK   43  A    between atoms: _104  and  _106
REMARK   44  A    between atoms: _106  and  _107
REMARK   45  A    between atoms: _106  and  _109
REMARK   46  A    between atoms: _109  and  _110
REMARK   47  A    between atoms: _110  and  _111
REMARK   48  A    between atoms: _111  and  _112
REMARK   49  A    between atoms: _121  and  _123
REMARK   50  A    between atoms: _123  and  _124
REMARK   51  A    between atoms: _123  and  _126
REMARK   52  A    between atoms: _126  and  _127
REMARK   53  A    between atoms: _130  and  _132
REMARK   54  A    between atoms: _132  and  _133
REMARK   55  A    between atoms: _132  and  _135
REMARK   56  A    between atoms: _135  and  _136
REMARK   57  A    between atoms: _141  and  _142
REMARK   58  A    between atoms: _144  and  _146
REMARK   59  A    between atoms: _146  and  _147
REMARK   60  A    between atoms: _146  and  _149
REMARK   61  A    between atoms: _149  and  _150
REMARK   62  A    between atoms: _155  and  _157
REMARK   63  A    between atoms: _157  and  _158
REMARK   64  A    between atoms: _157  and  _160
REMARK   65  A    between atoms: _160  and  _161
REMARK   66  A    between atoms: _161  and  _162
REMARK   67  A    between atoms: _164  and  _166
REMARK   68  A    between atoms: _166  and  _167
REMARK   69  A    between atoms: _166  and  _169
REMARK   70  A    between atoms: _171  and  _173
REMARK   71  A    between atoms: _173  and  _174
REMARK   72  A    between atoms: _173  and  _176
REMARK   73  A    between atoms: _176  and  _177
REMARK   74  A    between atoms: _177  and  _178
REMARK   75  A    between atoms: _178  and  _179
REMARK   76  A    between atoms: _179  and  _180
REMARK   77  A    between atoms: _184  and  _186
REMARK   78  A    between atoms: _186  and  _187
REMARK   79  A    between atoms: _186  and  _189
REMARK   80  A    between atoms: _189  and  _190
REMARK   81  A    between atoms: _193  and  _195
REMARK   82  A    between atoms: _195  and  _196
REMARK   83  A    between atoms: _195  and  _198
REMARK   84  A    between atoms: _200  and  _202
REMARK   85  A    between atoms: _202  and  _203
REMARK   86  A    between atoms: _202  and  _205
REMARK   87  A    between atoms: _205  and  _206
REMARK   88  A    between atoms: _212  and  _214
REMARK   89  A    between atoms: _214  and  _215
REMARK   90  A    between atoms: _214  and  _217
REMARK   91  A    between atoms: _217  and  _218
REMARK   92  A    between atoms: _223  and  _225
REMARK   93  A    between atoms: _225  and  _226
REMARK   94  A    between atoms: _225  and  _228
REMARK   95  A    between atoms: _228  and  _229
REMARK   96  A    between atoms: _231  and  _233
REMARK   97  A    between atoms: _233  and  _234
REMARK   98  A    between atoms: _233  and  _236
REMARK   99  A    between atoms: _236  and  _237
REMARK  100  A    between atoms: _240  and  _242
REMARK  101  A    between atoms: _242  and  _243
REMARK  102  A    between atoms: _242  and  _245
REMARK  103  A    between atoms: _245  and  _246
REMARK  104  A    between atoms: _249  and  _251
REMARK  105  A    between atoms: _251  and  _252
REMARK  106  A    between atoms: _251  and  _254
REMARK  107  A    between atoms: _254  and  _255
REMARK  108  A    between atoms: _258  and  _260
REMARK  109  A    between atoms: _260  and  _261
REMARK  110  A    between atoms: _260  and  _263
REMARK  111  A    between atoms: _263  and  _264
REMARK  112  A    between atoms: _269  and  _270
REMARK  113  A    between atoms: _272  and  _274
REMARK  114  A    between atoms: _274  and  _275
REMARK  115  A    between atoms: _274  and  _277
REMARK  116  A    between atoms: _277  and  _278
REMARK  117  A    between atoms: _283  and  _285
REMARK  118  A    between atoms: _285  and  _286
REMARK  119  A    between atoms: _288  and  _290
REMARK  120  A    between atoms: _290  and  _291
REMARK  121  A    between atoms: _290  and  _293
REMARK  122  A    between atoms: _293  and  _294
REMARK  123  A    between atoms: _299  and  _301
REMARK  124  A    between atoms: _301  and  _302
REMARK  125  A    between atoms: _301  and  _304
REMARK  126  A    between atoms: _307  and  _309
REMARK  127  A    between atoms: _309  and  _310
REMARK  128  A    between atoms: _309  and  _312
REMARK  129  A    between atoms: _312  and  _313
REMARK  130  A    between atoms: _316  and  _318
REMARK  131  A    between atoms: _318  and  _319
REMARK  132  A    between atoms: _318  and  _321
REMARK  133  A    between atoms: _321  and  _322
REMARK  134  A    between atoms: _325  and  _327
REMARK  135  A    between atoms: _327  and  _328
REMARK  136  A    between atoms: _327  and  _330
REMARK  137  A    between atoms: _330  and  _331
REMARK  138  A    between atoms: _334  and  _336
REMARK  139  A    between atoms: _336  and  _337
REMARK  140  A    between atoms: _336  and  _339
REMARK  141  A    between atoms: _339  and  _340
REMARK                            x       y       z     vdW  Elec       q    Type
REMARK                         _______ _______ _______ _____ _____    ______ ____
ROOT
ATOM      1  O   HOH     1       1.351  31.428  10.338  0.00  0.00    +0.000 OA
ENDROOT
TORSDOF 0
REMARK  Name = ../refined-set-2016/2p09/2p09_pocket.pdb
REMARK  141 active torsions:
REMARK  status: ('A' for Active; 'I' for Inactive)
REMARK    1  A    between atoms: _1  and  _3
REMARK    2  A    between atoms: _3  and  _4
REMARK    3  A    between atoms: _3  and  _6
REMARK    4  A    between atoms: _8  and  _10
REMARK    5  A    between atoms: _10  and  _11
REMARK    6  A    between atoms: _10  and  _13
REMARK    7  A    between atoms: _16  and  _18
REMARK    8  A    between atoms: _18  and  _19
REMARK    9  A    between atoms: _18  and  _21
REMARK   10  A    between atoms: _21  and  _22
REMARK   11  A    between atoms: _22  and  _23
REMARK   12  A    between atoms: _23  and  _24
REMARK   13  A    between atoms: _24  and  _25
REMARK   14  A    between atoms: _30  and  _31
REMARK   15  A    between atoms: _36  and  _38
REMARK   16  A    between atoms: _38  and  _39
REMARK   17  A    between atoms: _38  and  _41
REMARK   18  A    between atoms: _41  and  _42
REMARK   19  A    between atoms: _42  and  _43
REMARK   20  A    between atoms: _43  and  _44
REMARK   21  A    between atoms: _53  and  _55
REMARK   22  A    between atoms: _55  and  _56
REMARK   23  A    between atoms: _55  and  _58
REMARK   24  A    between atoms: _58  and  _59
REMARK   25  A    between atoms: _62  and  _64
REMARK   26  A    between atoms: _64  and  _65
REMARK   27  A    between atoms: _64  and  _67
REMARK   28  A    between atoms: _67  and  _68
REMARK   29  A    between atoms: _78  and  _80
REMARK   30  A    between atoms: _80  and  _81
REMARK   31  A    between atoms: _80  and  _83
REMARK   32  A    between atoms: _83  and  _84
REMARK   33  A    between atoms: _84  and  _85
REMARK   34  A    between atoms: _85  and  _86
REMARK   35  A    between atoms: _86  and  _87
REMARK   36  A    between atoms: _91  and  _93
REMARK   37  A    between atoms: _93  and  _94
REMARK   38  A    between atoms: _93  and  _96
REMARK   39  A    between atoms: _96  and  _97
REMARK   40  A    between atoms: _97  and  _98
REMARK   41  A    between atoms: _98  and  _99
REMARK   42  A    between atoms: _99  and  _100
REMARK   43  A    between atoms: _104  and  _106
REMARK   44  A    between atoms: _106  and  _107
REMARK   45  A    between atoms: _106  and  _109
REMARK   46  A    between atoms: _109  and  _110
REMARK   47  A    between atoms: _110  and  _111
REMARK   48  A    between atoms: _111  and  _112
REMARK   49  A    between atoms: _121  and  _123
REMARK   50  A    between atoms: _123  and  _124
REMARK   51  A    between atoms: _123  and  _126
REMARK   52  A    between atoms: _126  and  _127
REMARK   53  A    between atoms: _130  and  _132
REMARK   54  A    between atoms: _132  and  _133
REMARK   55  A    between atoms: _132  and  _135
REMARK   56  A    between atoms: _135  and  _136
REMARK   57  A    between atoms: _141  and  _142
REMARK   58  A    between atoms: _144  and  _146
REMARK   59  A    between atoms: _146  and  _147
REMARK   60  A    between atoms: _146  and  _149
REMARK   61  A    between atoms: _149  and  _150
REMARK   62  A    between atoms: _155  and  _157
REMARK   63  A    between atoms: _157  and  _158
REMARK   64  A    between atoms: _157  and  _160
REMARK   65  A    between atoms: _160  and  _161
REMARK   66  A    between atoms: _161  and  _162
REMARK   67  A    between atoms: _164  and  _166
REMARK   68  A    between atoms: _166  and  _167
REMARK   69  A    between atoms: _166  and  _169
REMARK   70  A    between atoms: _171  and  _173
REMARK   71  A    between atoms: _173  and  _174
REMARK   72  A    between atoms: _173  and  _176
REMARK   73  A    between atoms: _176  and  _177
REMARK   74  A    between atoms: _177  and  _178
REMARK   75  A    between atoms: _178  and  _179
REMARK   76  A    between atoms: _179  and  _180
REMARK   77  A    between atoms: _184  and  _186
REMARK   78  A    between atoms: _186  and  _187
REMARK   79  A    between atoms: _186  and  _189
REMARK   80  A    between atoms: _189  and  _190
REMARK   81  A    between atoms: _193  and  _195
REMARK   82  A    between atoms: _195  and  _196
REMARK   83  A    between atoms: _195  and  _198
REMARK   84  A    between atoms: _200  and  _202
REMARK   85  A    between atoms: _202  and  _203
REMARK   86  A    between atoms: _202  and  _205
REMARK   87  A    between atoms: _205  and  _206
REMARK   88  A    between atoms: _212  and  _214
REMARK   89  A    between atoms: _214  and  _215
REMARK   90  A    between atoms: _214  and  _217
REMARK   91  A    between atoms: _217  and  _218
REMARK   92  A    between atoms: _223  and  _225
REMARK   93  A    between atoms: _225  and  _226
REMARK   94  A    between atoms: _225  and  _228
REMARK   95  A    between atoms: _228  and  _229
REMARK   96  A    between atoms: _231  and  _233
REMARK   97  A    between atoms: _233  and  _234
REMARK   98  A    between atoms: _233  and  _236
REMARK   99  A    between atoms: _236  and  _237
REMARK  100  A    between atoms: _240  and  _242
REMARK  101  A    between atoms: _242  and  _243
REMARK  102  A    between atoms: _242  and  _245
REMARK  103  A    between atoms: _245  and  _246
REMARK  104  A    between atoms: _249  and  _251
REMARK  105  A    between atoms: _251  and  _252
REMARK  106  A    between atoms: _251  and  _254
REMARK  107  A    between atoms: _254  and  _255
REMARK  108  A    between atoms: _258  and  _260
REMARK  109  A    between atoms: _260  and  _261
REMARK  110  A    between atoms: _260  and  _263
REMARK  111  A    between atoms: _263  and  _264
REMARK  112  A    between atoms: _269  and  _270
REMARK  113  A    between atoms: _272  and  _274
REMARK  114  A    between atoms: _274  and  _275
REMARK  115  A    between atoms: _274  and  _277
REMARK  116  A    between atoms: _277  and  _278
REMARK  117  A    between atoms: _283  and  _285
REMARK  118  A    between atoms: _285  and  _286
REMARK  119  A    between atoms: _288  and  _290
REMARK  120  A    between atoms: _290  and  _291
REMARK  121  A    between atoms: _290  and  _293
REMARK  122  A    between atoms: _293  and  _294
REMARK  123  A    between atoms: _299  and  _301
REMARK  124  A    between atoms: _301  and  _302
REMARK  125  A    between atoms: _301  and  _304
REMARK  126  A    between atoms: _307  and  _309
REMARK  127  A    between atoms: _309  and  _310
REMARK  128  A    between atoms: _309  and  _312
REMARK  129  A    between atoms: _312  and  _313
REMARK  130  A    between atoms: _316  and  _318
REMARK  131  A    between atoms: _318  and  _319
REMARK  132  A    between atoms: _318  and  _321
REMARK  133  A    between atoms: _321  and  _322
REMARK  134  A    between atoms: _325  and  _327
REMARK  135  A    between atoms: _327  and  _328
REMARK  136  A    between atoms: _327  and  _330
REMARK  137  A    between atoms: _330  and  _331
REMARK  138  A    between atoms: _334  and  _336
REMARK  139  A    between atoms: _336  and  _337
REMARK  140  A    between atoms: _336  and  _339
REMARK  141  A    between atoms: _339  and  _340
REMARK                            x       y       z     vdW  Elec       q    Type
REMARK                         _______ _______ _______ _____ _____    ______ ____
ROOT
ATOM      1  O   HOH     1      -2.447  31.961  18.511  0.00  0.00    +0.000 OA
ENDROOT
TORSDOF 0
REMARK  Name = ../refined-set-2016/2p09/2p09_pocket.pdb
REMARK  141 active torsions:
REMARK  status: ('A' for Active; 'I' for Inactive)
REMARK    1  A    between atoms: _1  and  _3
REMARK    2  A    between atoms: _3  and  _4
REMARK    3  A    between atoms: _3  and  _6
REMARK    4  A    between atoms: _8  and  _10
REMARK    5  A    between atoms: _10  and  _11
REMARK    6  A    between atoms: _10  and  _13
REMARK    7  A    between atoms: _16  and  _18
REMARK    8  A    between atoms: _18  and  _19
REMARK    9  A    between atoms: _18  and  _21
REMARK   10  A    between atoms: _21  and  _22
REMARK   11  A    between atoms: _22  and  _23
REMARK   12  A    between atoms: _23  and  _24
REMARK   13  A    between atoms: _24  and  _25
REMARK   14  A    between atoms: _30  and  _31
REMARK   15  A    between atoms: _36  and  _38
REMARK   16  A    between atoms: _38  and  _39
REMARK   17  A    between atoms: _38  and  _41
REMARK   18  A    between atoms: _41  and  _42
REMARK   19  A    between atoms: _42  and  _43
REMARK   20  A    between atoms: _43  and  _44
REMARK   21  A    between atoms: _53  and  _55
REMARK   22  A    between atoms: _55  and  _56
REMARK   23  A    between atoms: _55  and  _58
REMARK   24  A    between atoms: _58  and  _59
REMARK   25  A    between atoms: _62  and  _64
REMARK   26  A    between atoms: _64  and  _65
REMARK   27  A    between atoms: _64  and  _67
REMARK   28  A    between atoms: _67  and  _68
REMARK   29  A    between atoms: _78  and  _80
REMARK   30  A    between atoms: _80  and  _81
REMARK   31  A    between atoms: _80  and  _83
REMARK   32  A    between atoms: _83  and  _84
REMARK   33  A    between atoms: _84  and  _85
REMARK   34  A    between atoms: _85  and  _86
REMARK   35  A    between atoms: _86  and  _87
REMARK   36  A    between atoms: _91  and  _93
REMARK   37  A    between atoms: _93  and  _94
REMARK   38  A    between atoms: _93  and  _96
REMARK   39  A    between atoms: _96  and  _97
REMARK   40  A    between atoms: _97  and  _98
REMARK   41  A    between atoms: _98  and  _99
REMARK   42  A    between atoms: _99  and  _100
REMARK   43  A    between atoms: _104  and  _106
REMARK   44  A    between atoms: _106  and  _107
REMARK   45  A    between atoms: _106  and  _109
REMARK   46  A    between atoms: _109  and  _110
REMARK   47  A    between atoms: _110  and  _111
REMARK   48  A    between atoms: _111  and  _112
REMARK   49  A    between atoms: _121  and  _123
REMARK   50  A    between atoms: _123  and  _124
REMARK   51  A    between atoms: _123  and  _126
REMARK   52  A    between atoms: _126  and  _127
REMARK   53  A    between atoms: _130  and  _132
REMARK   54  A    between atoms: _132  and  _133
REMARK   55  A    between atoms: _132  and  _135
REMARK   56  A    between atoms: _135  and  _136
REMARK   57  A    between atoms: _141  and  _142
REMARK   58  A    between atoms: _144  and  _146
REMARK   59  A    between atoms: _146  and  _147
REMARK   60  A    between atoms: _146  and  _149
REMARK   61  A    between atoms: _149  and  _150
REMARK   62  A    between atoms: _155  and  _157
REMARK   63  A    between atoms: _157  and  _158
REMARK   64  A    between atoms: _157  and  _160
REMARK   65  A    between atoms: _160  and  _161
REMARK   66  A    between atoms: _161  and  _162
REMARK   67  A    between atoms: _164  and  _166
REMARK   68  A    between atoms: _166  and  _167
REMARK   69  A    between atoms: _166  and  _169
REMARK   70  A    between atoms: _171  and  _173
REMARK   71  A    between atoms: _173  and  _174
REMARK   72  A    between atoms: _173  and  _176
REMARK   73  A    between atoms: _176  and  _177
REMARK   74  A    between atoms: _177  and  _178
REMARK   75  A    between atoms: _178  and  _179
REMARK   76  A    between atoms: _179  and  _180
REMARK   77  A    between atoms: _184  and  _186
REMARK   78  A    between atoms: _186  and  _187
REMARK   79  A    between atoms: _186  and  _189
REMARK   80  A    between atoms: _189  and  _190
REMARK   81  A    between atoms: _193  and  _195
REMARK   82  A    between atoms: _195  and  _196
REMARK   83  A    between atoms: _195  and  _198
REMARK   84  A    between atoms: _200  and  _202
REMARK   85  A    between atoms: _202  and  _203
REMARK   86  A    between atoms: _202  and  _205
REMARK   87  A    between atoms: _205  and  _206
REMARK   88  A    between atoms: _212  and  _214
REMARK   89  A    between atoms: _214  and  _215
REMARK   90  A    between atoms: _214  and  _217
REMARK   91  A    between atoms: _217  and  _218
REMARK   92  A    between atoms: _223  and  _225
REMARK   93  A    between atoms: _225  and  _226
REMARK   94  A    between atoms: _225  and  _228
REMARK   95  A    between atoms: _228  and  _229
REMARK   96  A    between atoms: _231  and  _233
REMARK   97  A    between atoms: _233  and  _234
REMARK   98  A    between atoms: _233  and  _236
REMARK   99  A    between atoms: _236  and  _237
REMARK  100  A    between atoms: _240  and  _242
REMARK  101  A    between atoms: _242  and  _243
REMARK  102  A    between atoms: _242  and  _245
REMARK  103  A    between atoms: _245  and  _246
REMARK  104  A    between atoms: _249  and  _251
REMARK  105  A    between atoms: _251  and  _252
REMARK  106  A    between atoms: _251  and  _254
REMARK  107  A    between atoms: _254  and  _255
REMARK  108  A    between atoms: _258  and  _260
REMARK  109  A    between atoms: _260  and  _261
REMARK  110  A    between atoms: _260  and  _263
REMARK  111  A    between atoms: _263  and  _264
REMARK  112  A    between atoms: _269  and  _270
REMARK  113  A    between atoms: _272  and  _274
REMARK  114  A    between atoms: _274  and  _275
REMARK  115  A    between atoms: _274  and  _277
REMARK  116  A    between atoms: _277  and  _278
REMARK  117  A    between atoms: _283  and  _285
REMARK  118  A    between atoms: _285  and  _286
REMARK  119  A    between atoms: _288  and  _290
REMARK  120  A    between atoms: _290  and  _291
REMARK  121  A    between atoms: _290  and  _293
REMARK  122  A    between atoms: _293  and  _294
REMARK  123  A    between atoms: _299  and  _301
REMARK  124  A    between atoms: _301  and  _302
REMARK  125  A    between atoms: _301  and  _304
REMARK  126  A    between atoms: _307  and  _309
REMARK  127  A    between atoms: _309  and  _310
REMARK  128  A    between atoms: _309  and  _312
REMARK  129  A    between atoms: _312  and  _313
REMARK  130  A    between atoms: _316  and  _318
REMARK  131  A    between atoms: _318  and  _319
REMARK  132  A    between atoms: _318  and  _321
REMARK  133  A    between atoms: _321  and  _322
REMARK  134  A    between atoms: _325  and  _327
REMARK  135  A    between atoms: _327  and  _328
REMARK  136  A    between atoms: _327  and  _330
REMARK  137  A    between atoms: _330  and  _331
REMARK  138  A    between atoms: _334  and  _336
REMARK  139  A    between atoms: _336  and  _337
REMARK  140  A    between atoms: _336  and  _339
REMARK  141  A    between atoms: _339  and  _340
REMARK                            x       y       z     vdW  Elec       q    Type
REMARK                         _______ _______ _______ _____ _____    ______ ____
ROOT
ATOM      1  O   HOH     1       4.595  21.463  24.615  0.00  0.00    +0.000 OA
ENDROOT
TORSDOF 0
REMARK  Name = ../refined-set-2016/2p09/2p09_pocket.pdb
REMARK  141 active torsions:
REMARK  status: ('A' for Active; 'I' for Inactive)
REMARK    1  A    between atoms: _1  and  _3
REMARK    2  A    between atoms: _3  and  _4
REMARK    3  A    between atoms: _3  and  _6
REMARK    4  A    between atoms: _8  and  _10
REMARK    5  A    between atoms: _10  and  _11
REMARK    6  A    between atoms: _10  and  _13
REMARK    7  A    between atoms: _16  and  _18
REMARK    8  A    between atoms: _18  and  _19
REMARK    9  A    between atoms: _18  and  _21
REMARK   10  A    between atoms: _21  and  _22
REMARK   11  A    between atoms: _22  and  _23
REMARK   12  A    between atoms: _23  and  _24
REMARK   13  A    between atoms: _24  and  _25
REMARK   14  A    between atoms: _30  and  _31
REMARK   15  A    between atoms: _36  and  _38
REMARK   16  A    between atoms: _38  and  _39
REMARK   17  A    between atoms: _38  and  _41
REMARK   18  A    between atoms: _41  and  _42
REMARK   19  A    between atoms: _42  and  _43
REMARK   20  A    between atoms: _43  and  _44
REMARK   21  A    between atoms: _53  and  _55
REMARK   22  A    between atoms: _55  and  _56
REMARK   23  A    between atoms: _55  and  _58
REMARK   24  A    between atoms: _58  and  _59
REMARK   25  A    between atoms: _62  and  _64
REMARK   26  A    between atoms: _64  and  _65
REMARK   27  A    between atoms: _64  and  _67
REMARK   28  A    between atoms: _67  and  _68
REMARK   29  A    between atoms: _78  and  _80
REMARK   30  A    between atoms: _80  and  _81
REMARK   31  A    between atoms: _80  and  _83
REMARK   32  A    between atoms: _83  and  _84
REMARK   33  A    between atoms: _84  and  _85
REMARK   34  A    between atoms: _85  and  _86
REMARK   35  A    between atoms: _86  and  _87
REMARK   36  A    between atoms: _91  and  _93
REMARK   37  A    between atoms: _93  and  _94
REMARK   38  A    between atoms: _93  and  _96
REMARK   39  A    between atoms: _96  and  _97
REMARK   40  A    between atoms: _97  and  _98
REMARK   41  A    between atoms: _98  and  _99
REMARK   42  A    between atoms: _99  and  _100
REMARK   43  A    between atoms: _104  and  _106
REMARK   44  A    between atoms: _106  and  _107
REMARK   45  A    between atoms: _106  and  _109
REMARK   46  A    between atoms: _109  and  _110
REMARK   47  A    between atoms: _110  and  _111
REMARK   48  A    between atoms: _111  and  _112
REMARK   49  A    between atoms: _121  and  _123
REMARK   50  A    between atoms: _123  and  _124
REMARK   51  A    between atoms: _123  and  _126
REMARK   52  A    between atoms: _126  and  _127
REMARK   53  A    between atoms: _130  and  _132
REMARK   54  A    between atoms: _132  and  _133
REMARK   55  A    between atoms: _132  and  _135
REMARK   56  A    between atoms: _135  and  _136
REMARK   57  A    between atoms: _141  and  _142
REMARK   58  A    between atoms: _144  and  _146
REMARK   59  A    between atoms: _146  and  _147
REMARK   60  A    between atoms: _146  and  _149
REMARK   61  A    between atoms: _149  and  _150
REMARK   62  A    between atoms: _155  and  _157
REMARK   63  A    between atoms: _157  and  _158
REMARK   64  A    between atoms: _157  and  _160
REMARK   65  A    between atoms: _160  and  _161
REMARK   66  A    between atoms: _161  and  _162
REMARK   67  A    between atoms: _164  and  _166
REMARK   68  A    between atoms: _166  and  _167
REMARK   69  A    between atoms: _166  and  _169
REMARK   70  A    between atoms: _171  and  _173
REMARK   71  A    between atoms: _173  and  _174
REMARK   72  A    between atoms: _173  and  _176
REMARK   73  A    between atoms: _176  and  _177
REMARK   74  A    between atoms: _177  and  _178
REMARK   75  A    between atoms: _178  and  _179
REMARK   76  A    between atoms: _179  and  _180
REMARK   77  A    between atoms: _184  and  _186
REMARK   78  A    between atoms: _186  and  _187
REMARK   79  A    between atoms: _186  and  _189
REMARK   80  A    between atoms: _189  and  _190
REMARK   81  A    between atoms: _193  and  _195
REMARK   82  A    between atoms: _195  and  _196
REMARK   83  A    between atoms: _195  and  _198
REMARK   84  A    between atoms: _200  and  _202
REMARK   85  A    between atoms: _202  and  _203
REMARK   86  A    between atoms: _202  and  _205
REMARK   87  A    between atoms: _205  and  _206
REMARK   88  A    between atoms: _212  and  _214
REMARK   89  A    between atoms: _214  and  _215
REMARK   90  A    between atoms: _214  and  _217
REMARK   91  A    between atoms: _217  and  _218
REMARK   92  A    between atoms: _223  and  _225
REMARK   93  A    between atoms: _225  and  _226
REMARK   94  A    between atoms: _225  and  _228
REMARK   95  A    between atoms: _228  and  _229
REMARK   96  A    between atoms: _231  and  _233
REMARK   97  A    between atoms: _233  and  _234
REMARK   98  A    between atoms: _233  and  _236
REMARK   99  A    between atoms: _236  and  _237
REMARK  100  A    between atoms: _240  and  _242
REMARK  101  A    between atoms: _242  and  _243
REMARK  102  A    between atoms: _242  and  _245
REMARK  103  A    between atoms: _245  and  _246
REMARK  104  A    between atoms: _249  and  _251
REMARK  105  A    between atoms: _251  and  _252
REMARK  106  A    between atoms: _251  and  _254
REMARK  107  A    between atoms: _254  and  _255
REMARK  108  A    between atoms: _258  and  _260
REMARK  109  A    between atoms: _260  and  _261
REMARK  110  A    between atoms: _260  and  _263
REMARK  111  A    between atoms: _263  and  _264
REMARK  112  A    between atoms: _269  and  _270
REMARK  113  A    between atoms: _272  and  _274
REMARK  114  A    between atoms: _274  and  _275
REMARK  115  A    between atoms: _274  and  _277
REMARK  116  A    between atoms: _277  and  _278
REMARK  117  A    between atoms: _283  and  _285
REMARK  118  A    between atoms: _285  and  _286
REMARK  119  A    between atoms: _288  and  _290
REMARK  120  A    between atoms: _290  and  _291
REMARK  121  A    between atoms: _290  and  _293
REMARK  122  A    between atoms: _293  and  _294
REMARK  123  A    between atoms: _299  and  _301
REMARK  124  A    between atoms: _301  and  _302
REMARK  125  A    between atoms: _301  and  _304
REMARK  126  A    between atoms: _307  and  _309
REMARK  127  A    between atoms: _309  and  _310
REMARK  128  A    between atoms: _309  and  _312
REMARK  129  A    between atoms: _312  and  _313
REMARK  130  A    between atoms: _316  and  _318
REMARK  131  A    between atoms: _318  and  _319
REMARK  132  A    between atoms: _318  and  _321
REMARK  133  A    between atoms: _321  and  _322
REMARK  134  A    between atoms: _325  and  _327
REMARK  135  A    between atoms: _327  and  _328
REMARK  136  A    between atoms: _327  and  _330
REMARK  137  A    between atoms: _330  and  _331
REMARK  138  A    between atoms: _334  and  _336
REMARK  139  A    between atoms: _336  and  _337
REMARK  140  A    between atoms: _336  and  _339
REMARK  141  A    between atoms: _339  and  _340
REMARK                            x       y       z     vdW  Elec       q    Type
REMARK                         _______ _______ _______ _____ _____    ______ ____
ROOT
ATOM      1  O   HOH     1      -1.644  28.883  28.960  0.00  0.00    +0.000 OA
ENDROOT
TORSDOF 0
REMARK  Name = ../refined-set-2016/2p09/2p09_pocket.pdb
REMARK  141 active torsions:
REMARK  status: ('A' for Active; 'I' for Inactive)
REMARK    1  A    between atoms: _1  and  _3
REMARK    2  A    between atoms: _3  and  _4
REMARK    3  A    between atoms: _3  and  _6
REMARK    4  A    between atoms: _8  and  _10
REMARK    5  A    between atoms: _10  and  _11
REMARK    6  A    between atoms: _10  and  _13
REMARK    7  A    between atoms: _16  and  _18
REMARK    8  A    between atoms: _18  and  _19
REMARK    9  A    between atoms: _18  and  _21
REMARK   10  A    between atoms: _21  and  _22
REMARK   11  A    between atoms: _22  and  _23
REMARK   12  A    between atoms: _23  and  _24
REMARK   13  A    between atoms: _24  and  _25
REMARK   14  A    between atoms: _30  and  _31
REMARK   15  A    between atoms: _36  and  _38
REMARK   16  A    between atoms: _38  and  _39
REMARK   17  A    between atoms: _38  and  _41
REMARK   18  A    between atoms: _41  and  _42
REMARK   19  A    between atoms: _42  and  _43
REMARK   20  A    between atoms: _43  and  _44
REMARK   21  A    between atoms: _53  and  _55
REMARK   22  A    between atoms: _55  and  _56
REMARK   23  A    between atoms: _55  and  _58
REMARK   24  A    between atoms: _58  and  _59
REMARK   25  A    between atoms: _62  and  _64
REMARK   26  A    between atoms: _64  and  _65
REMARK   27  A    between atoms: _64  and  _67
REMARK   28  A    between atoms: _67  and  _68
REMARK   29  A    between atoms: _78  and  _80
REMARK   30  A    between atoms: _80  and  _81
REMARK   31  A    between atoms: _80  and  _83
REMARK   32  A    between atoms: _83  and  _84
REMARK   33  A    between atoms: _84  and  _85
REMARK   34  A    between atoms: _85  and  _86
REMARK   35  A    between atoms: _86  and  _87
REMARK   36  A    between atoms: _91  and  _93
REMARK   37  A    between atoms: _93  and  _94
REMARK   38  A    between atoms: _93  and  _96
REMARK   39  A    between atoms: _96  and  _97
REMARK   40  A    between atoms: _97  and  _98
REMARK   41  A    between atoms: _98  and  _99
REMARK   42  A    between atoms: _99  and  _100
REMARK   43  A    between atoms: _104  and  _106
REMARK   44  A    between atoms: _106  and  _107
REMARK   45  A    between atoms: _106  and  _109
REMARK   46  A    between atoms: _109  and  _110
REMARK   47  A    between atoms: _110  and  _111
REMARK   48  A    between atoms: _111  and  _112
REMARK   49  A    between atoms: _121  and  _123
REMARK   50  A    between atoms: _123  and  _124
REMARK   51  A    between atoms: _123  and  _126
REMARK   52  A    between atoms: _126  and  _127
REMARK   53  A    between atoms: _130  and  _132
REMARK   54  A    between atoms: _132  and  _133
REMARK   55  A    between atoms: _132  and  _135
REMARK   56  A    between atoms: _135  and  _136
REMARK   57  A    between atoms: _141  and  _142
REMARK   58  A    between atoms: _144  and  _146
REMARK   59  A    between atoms: _146  and  _147
REMARK   60  A    between atoms: _146  and  _149
REMARK   61  A    between atoms: _149  and  _150
REMARK   62  A    between atoms: _155  and  _157
REMARK   63  A    between atoms: _157  and  _158
REMARK   64  A    between atoms: _157  and  _160
REMARK   65  A    between atoms: _160  and  _161
REMARK   66  A    between atoms: _161  and  _162
REMARK   67  A    between atoms: _164  and  _166
REMARK   68  A    between atoms: _166  and  _167
REMARK   69  A    between atoms: _166  and  _169
REMARK   70  A    between atoms: _171  and  _173
REMARK   71  A    between atoms: _173  and  _174
REMARK   72  A    between atoms: _173  and  _176
REMARK   73  A    between atoms: _176  and  _177
REMARK   74  A    between atoms: _177  and  _178
REMARK   75  A    between atoms: _178  and  _179
REMARK   76  A    between atoms: _179  and  _180
REMARK   77  A    between atoms: _184  and  _186
REMARK   78  A    between atoms: _186  and  _187
REMARK   79  A    between atoms: _186  and  _189
REMARK   80  A    between atoms: _189  and  _190
REMARK   81  A    between atoms: _193  and  _195
REMARK   82  A    between atoms: _195  and  _196
REMARK   83  A    between atoms: _195  and  _198
REMARK   84  A    between atoms: _200  and  _202
REMARK   85  A    between atoms: _202  and  _203
REMARK   86  A    between atoms: _202  and  _205
REMARK   87  A    between atoms: _205  and  _206
REMARK   88  A    between atoms: _212  and  _214
REMARK   89  A    between atoms: _214  and  _215
REMARK   90  A    between atoms: _214  and  _217
REMARK   91  A    between atoms: _217  and  _218
REMARK   92  A    between atoms: _223  and  _225
REMARK   93  A    between atoms: _225  and  _226
REMARK   94  A    between atoms: _225  and  _228
REMARK   95  A    between atoms: _228  and  _229
REMARK   96  A    between atoms: _231  and  _233
REMARK   97  A    between atoms: _233  and  _234
REMARK   98  A    between atoms: _233  and  _236
REMARK   99  A    between atoms: _236  and  _237
REMARK  100  A    between atoms: _240  and  _242
REMARK  101  A    between atoms: _242  and  _243
REMARK  102  A    between atoms: _242  and  _245
REMARK  103  A    between atoms: _245  and  _246
REMARK  104  A    between atoms: _249  and  _251
REMARK  105  A    between atoms: _251  and  _252
REMARK  106  A    between atoms: _251  and  _254
REMARK  107  A    between atoms: _254  and  _255
REMARK  108  A    between atoms: _258  and  _260
REMARK  109  A    between atoms: _260  and  _261
REMARK  110  A    between atoms: _260  and  _263
REMARK  111  A    between atoms: _263  and  _264
REMARK  112  A    between atoms: _269  and  _270
REMARK  113  A    between atoms: _272  and  _274
REMARK  114  A    between atoms: _274  and  _275
REMARK  115  A    between atoms: _274  and  _277
REMARK  116  A    between atoms: _277  and  _278
REMARK  117  A    between atoms: _283  and  _285
REMARK  118  A    between atoms: _285  and  _286
REMARK  119  A    between atoms: _288  and  _290
REMARK  120  A    between atoms: _290  and  _291
REMARK  121  A    between atoms: _290  and  _293
REMARK  122  A    between atoms: _293  and  _294
REMARK  123  A    between atoms: _299  and  _301
REMARK  124  A    between atoms: _301  and  _302
REMARK  125  A    between atoms: _301  and  _304
REMARK  126  A    between atoms: _307  and  _309
REMARK  127  A    between atoms: _309  and  _310
REMARK  128  A    between atoms: _309  and  _312
REMARK  129  A    between atoms: _312  and  _313
REMARK  130  A    between atoms: _316  and  _318
REMARK  131  A    between atoms: _318  and  _319
REMARK  132  A    between atoms: _318  and  _321
REMARK  133  A    between atoms: _321  and  _322
REMARK  134  A    between atoms: _325  and  _327
REMARK  135  A    between atoms: _327  and  _328
REMARK  136  A    between atoms: _327  and  _330
REMARK  137  A    between atoms: _330  and  _331
REMARK  138  A    between atoms: _334  and  _336
REMARK  139  A    between atoms: _336  and  _337
REMARK  140  A    between atoms: _336  and  _339
REMARK  141  A    between atoms: _339  and  _340
REMARK                            x       y       z     vdW  Elec       q    Type
REMARK                         _______ _______ _______ _____ _____    ______ ____
ROOT
ATOM      1  O   HOH     1       9.229  34.558  11.700  0.00  0.00    +0.000 OA
ENDROOT
TORSDOF 0
REMARK  Name = ../refined-set-2016/2p09/2p09_pocket.pdb
REMARK  141 active torsions:
REMARK  status: ('A' for Active; 'I' for Inactive)
REMARK    1  A    between atoms: _1  and  _3
REMARK    2  A    between atoms: _3  and  _4
REMARK    3  A    between atoms: _3  and  _6
REMARK    4  A    between atoms: _8  and  _10
REMARK    5  A    between atoms: _10  and  _11
REMARK    6  A    between atoms: _10  and  _13
REMARK    7  A    between atoms: _16  and  _18
REMARK    8  A    between atoms: _18  and  _19
REMARK    9  A    between atoms: _18  and  _21
REMARK   10  A    between atoms: _21  and  _22
REMARK   11  A    between atoms: _22  and  _23
REMARK   12  A    between atoms: _23  and  _24
REMARK   13  A    between atoms: _24  and  _25
REMARK   14  A    between atoms: _30  and  _31
REMARK   15  A    between atoms: _36  and  _38
REMARK   16  A    between atoms: _38  and  _39
REMARK   17  A    between atoms: _38  and  _41
REMARK   18  A    between atoms: _41  and  _42
REMARK   19  A    between atoms: _42  and  _43
REMARK   20  A    between atoms: _43  and  _44
REMARK   21  A    between atoms: _53  and  _55
REMARK   22  A    between atoms: _55  and  _56
REMARK   23  A    between atoms: _55  and  _58
REMARK   24  A    between atoms: _58  and  _59
REMARK   25  A    between atoms: _62  and  _64
REMARK   26  A    between atoms: _64  and  _65
REMARK   27  A    between atoms: _64  and  _67
REMARK   28  A    between atoms: _67  and  _68
REMARK   29  A    between atoms: _78  and  _80
REMARK   30  A    between atoms: _80  and  _81
REMARK   31  A    between atoms: _80  and  _83
REMARK   32  A    between atoms: _83  and  _84
REMARK   33  A    between atoms: _84  and  _85
REMARK   34  A    between atoms: _85  and  _86
REMARK   35  A    between atoms: _86  and  _87
REMARK   36  A    between atoms: _91  and  _93
REMARK   37  A    between atoms: _93  and  _94
REMARK   38  A    between atoms: _93  and  _96
REMARK   39  A    between atoms: _96  and  _97
REMARK   40  A    between atoms: _97  and  _98
REMARK   41  A    between atoms: _98  and  _99
REMARK   42  A    between atoms: _99  and  _100
REMARK   43  A    between atoms: _104  and  _106
REMARK   44  A    between atoms: _106  and  _107
REMARK   45  A    between atoms: _106  and  _109
REMARK   46  A    between atoms: _109  and  _110
REMARK   47  A    between atoms: _110  and  _111
REMARK   48  A    between atoms: _111  and  _112
REMARK   49  A    between atoms: _121  and  _123
REMARK   50  A    between atoms: _123  and  _124
REMARK   51  A    between atoms: _123  and  _126
REMARK   52  A    between atoms: _126  and  _127
REMARK   53  A    between atoms: _130  and  _132
REMARK   54  A    between atoms: _132  and  _133
REMARK   55  A    between atoms: _132  and  _135
REMARK   56  A    between atoms: _135  and  _136
REMARK   57  A    between atoms: _141  and  _142
REMARK   58  A    between atoms: _144  and  _146
REMARK   59  A    between atoms: _146  and  _147
REMARK   60  A    between atoms: _146  and  _149
REMARK   61  A    between atoms: _149  and  _150
REMARK   62  A    between atoms: _155  and  _157
REMARK   63  A    between atoms: _157  and  _158
REMARK   64  A    between atoms: _157  and  _160
REMARK   65  A    between atoms: _160  and  _161
REMARK   66  A    between atoms: _161  and  _162
REMARK   67  A    between atoms: _164  and  _166
REMARK   68  A    between atoms: _166  and  _167
REMARK   69  A    between atoms: _166  and  _169
REMARK   70  A    between atoms: _171  and  _173
REMARK   71  A    between atoms: _173  and  _174
REMARK   72  A    between atoms: _173  and  _176
REMARK   73  A    between atoms: _176  and  _177
REMARK   74  A    between atoms: _177  and  _178
REMARK   75  A    between atoms: _178  and  _179
REMARK   76  A    between atoms: _179  and  _180
REMARK   77  A    between atoms: _184  and  _186
REMARK   78  A    between atoms: _186  and  _187
REMARK   79  A    between atoms: _186  and  _189
REMARK   80  A    between atoms: _189  and  _190
REMARK   81  A    between atoms: _193  and  _195
REMARK   82  A    between atoms: _195  and  _196
REMARK   83  A    between atoms: _195  and  _198
REMARK   84  A    between atoms: _200  and  _202
REMARK   85  A    between atoms: _202  and  _203
REMARK   86  A    between atoms: _202  and  _205
REMARK   87  A    between atoms: _205  and  _206
REMARK   88  A    between atoms: _212  and  _214
REMARK   89  A    between atoms: _214  and  _215
REMARK   90  A    between atoms: _214  and  _217
REMARK   91  A    between atoms: _217  and  _218
REMARK   92  A    between atoms: _223  and  _225
REMARK   93  A    between atoms: _225  and  _226
REMARK   94  A    between atoms: _225  and  _228
REMARK   95  A    between atoms: _228  and  _229
REMARK   96  A    between atoms: _231  and  _233
REMARK   97  A    between atoms: _233  and  _234
REMARK   98  A    between atoms: _233  and  _236
REMARK   99  A    between atoms: _236  and  _237
REMARK  100  A    between atoms: _240  and  _242
REMARK  101  A    between atoms: _242  and  _243
REMARK  102  A    between atoms: _242  and  _245
REMARK  103  A    between atoms: _245  and  _246
REMARK  104  A    between atoms: _249  and  _251
REMARK  105  A    between atoms: _251  and  _252
REMARK  106  A    between atoms: _251  and  _254
REMARK  107  A    between atoms: _254  and  _255
REMARK  108  A    between atoms: _258  and  _260
REMARK  109  A    between atoms: _260  and  _261
REMARK  110  A    between atoms: _260  and  _263
REMARK  111  A    between atoms: _263  and  _264
REMARK  112  A    between atoms: _269  and  _270
REMARK  113  A    between atoms: _272  and  _274
REMARK  114  A    between atoms: _274  and  _275
REMARK  115  A    between atoms: _274  and  _277
REMARK  116  A    between atoms: _277  and  _278
REMARK  117  A    between atoms: _283  and  _285
REMARK  118  A    between atoms: _285  and  _286
REMARK  119  A    between atoms: _288  and  _290
REMARK  120  A    between atoms: _290  and  _291
REMARK  121  A    between atoms: _290  and  _293
REMARK  122  A    between atoms: _293  and  _294
REMARK  123  A    between atoms: _299  and  _301
REMARK  124  A    between atoms: _301  and  _302
REMARK  125  A    between atoms: _301  and  _304
REMARK  126  A    between atoms: _307  and  _309
REMARK  127  A    between atoms: _309  and  _310
REMARK  128  A    between atoms: _309  and  _312
REMARK  129  A    between atoms: _312  and  _313
REMARK  130  A    between atoms: _316  and  _318
REMARK  131  A    between atoms: _318  and  _319
REMARK  132  A    between atoms: _318  and  _321
REMARK  133  A    between atoms: _321  and  _322
REMARK  134  A    between atoms: _325  and  _327
REMARK  135  A    between atoms: _327  and  _328
REMARK  136  A    between atoms: _327  and  _330
REMARK  137  A    between atoms: _330  and  _331
REMARK  138  A    between atoms: _334  and  _336
REMARK  139  A    between atoms: _336  and  _337
REMARK  140  A    between atoms: _336  and  _339
REMARK  141  A    between atoms: _339  and  _340
REMARK                            x       y       z     vdW  Elec       q    Type
REMARK                         _______ _______ _______ _____ _____    ______ ____
ROOT
ATOM      1  O   HOH     1      -3.044  33.402  20.574  0.00  0.00    +0.000 OA
ENDROOT
TORSDOF 0
REMARK  Name = ../refined-set-2016/2p09/2p09_pocket.pdb
REMARK  141 active torsions:
REMARK  status: ('A' for Active; 'I' for Inactive)
REMARK    1  A    between atoms: _1  and  _3
REMARK    2  A    between atoms: _3  and  _4
REMARK    3  A    between atoms: _3  and  _6
REMARK    4  A    between atoms: _8  and  _10
REMARK    5  A    between atoms: _10  and  _11
REMARK    6  A    between atoms: _10  and  _13
REMARK    7  A    between atoms: _16  and  _18
REMARK    8  A    between atoms: _18  and  _19
REMARK    9  A    between atoms: _18  and  _21
REMARK   10  A    between atoms: _21  and  _22
REMARK   11  A    between atoms: _22  and  _23
REMARK   12  A    between atoms: _23  and  _24
REMARK   13  A    between atoms: _24  and  _25
REMARK   14  A    between atoms: _30  and  _31
REMARK   15  A    between atoms: _36  and  _38
REMARK   16  A    between atoms: _38  and  _39
REMARK   17  A    between atoms: _38  and  _41
REMARK   18  A    between atoms: _41  and  _42
REMARK   19  A    between atoms: _42  and  _43
REMARK   20  A    between atoms: _43  and  _44
REMARK   21  A    between atoms: _53  and  _55
REMARK   22  A    between atoms: _55  and  _56
REMARK   23  A    between atoms: _55  and  _58
REMARK   24  A    between atoms: _58  and  _59
REMARK   25  A    between atoms: _62  and  _64
REMARK   26  A    between atoms: _64  and  _65
REMARK   27  A    between atoms: _64  and  _67
REMARK   28  A    between atoms: _67  and  _68
REMARK   29  A    between atoms: _78  and  _80
REMARK   30  A    between atoms: _80  and  _81
REMARK   31  A    between atoms: _80  and  _83
REMARK   32  A    between atoms: _83  and  _84
REMARK   33  A    between atoms: _84  and  _85
REMARK   34  A    between atoms: _85  and  _86
REMARK   35  A    between atoms: _86  and  _87
REMARK   36  A    between atoms: _91  and  _93
REMARK   37  A    between atoms: _93  and  _94
REMARK   38  A    between atoms: _93  and  _96
REMARK   39  A    between atoms: _96  and  _97
REMARK   40  A    between atoms: _97  and  _98
REMARK   41  A    between atoms: _98  and  _99
REMARK   42  A    between atoms: _99  and  _100
REMARK   43  A    between atoms: _104  and  _106
REMARK   44  A    between atoms: _106  and  _107
REMARK   45  A    between atoms: _106  and  _109
REMARK   46  A    between atoms: _109  and  _110
REMARK   47  A    between atoms: _110  and  _111
REMARK   48  A    between atoms: _111  and  _112
REMARK   49  A    between atoms: _121  and  _123
REMARK   50  A    between atoms: _123  and  _124
REMARK   51  A    between atoms: _123  and  _126
REMARK   52  A    between atoms: _126  and  _127
REMARK   53  A    between atoms: _130  and  _132
REMARK   54  A    between atoms: _132  and  _133
REMARK   55  A    between atoms: _132  and  _135
REMARK   56  A    between atoms: _135  and  _136
REMARK   57  A    between atoms: _141  and  _142
REMARK   58  A    between atoms: _144  and  _146
REMARK   59  A    between atoms: _146  and  _147
REMARK   60  A    between atoms: _146  and  _149
REMARK   61  A    between atoms: _149  and  _150
REMARK   62  A    between atoms: _155  and  _157
REMARK   63  A    between atoms: _157  and  _158
REMARK   64  A    between atoms: _157  and  _160
REMARK   65  A    between atoms: _160  and  _161
REMARK   66  A    between atoms: _161  and  _162
REMARK   67  A    between atoms: _164  and  _166
REMARK   68  A    between atoms: _166  and  _167
REMARK   69  A    between atoms: _166  and  _169
REMARK   70  A    between atoms: _171  and  _173
REMARK   71  A    between atoms: _173  and  _174
REMARK   72  A    between atoms: _173  and  _176
REMARK   73  A    between atoms: _176  and  _177
REMARK   74  A    between atoms: _177  and  _178
REMARK   75  A    between atoms: _178  and  _179
REMARK   76  A    between atoms: _179  and  _180
REMARK   77  A    between atoms: _184  and  _186
REMARK   78  A    between atoms: _186  and  _187
REMARK   79  A    between atoms: _186  and  _189
REMARK   80  A    between atoms: _189  and  _190
REMARK   81  A    between atoms: _193  and  _195
REMARK   82  A    between atoms: _195  and  _196
REMARK   83  A    between atoms: _195  and  _198
REMARK   84  A    between atoms: _200  and  _202
REMARK   85  A    between atoms: _202  and  _203
REMARK   86  A    between atoms: _202  and  _205
REMARK   87  A    between atoms: _205  and  _206
REMARK   88  A    between atoms: _212  and  _214
REMARK   89  A    between atoms: _214  and  _215
REMARK   90  A    between atoms: _214  and  _217
REMARK   91  A    between atoms: _217  and  _218
REMARK   92  A    between atoms: _223  and  _225
REMARK   93  A    between atoms: _225  and  _226
REMARK   94  A    between atoms: _225  and  _228
REMARK   95  A    between atoms: _228  and  _229
REMARK   96  A    between atoms: _231  and  _233
REMARK   97  A    between atoms: _233  and  _234
REMARK   98  A    between atoms: _233  and  _236
REMARK   99  A    between atoms: _236  and  _237
REMARK  100  A    between atoms: _240  and  _242
REMARK  101  A    between atoms: _242  and  _243
REMARK  102  A    between atoms: _242  and  _245
REMARK  103  A    between atoms: _245  and  _246
REMARK  104  A    between atoms: _249  and  _251
REMARK  105  A    between atoms: _251  and  _252
REMARK  106  A    between atoms: _251  and  _254
REMARK  107  A    between atoms: _254  and  _255
REMARK  108  A    between atoms: _258  and  _260
REMARK  109  A    between atoms: _260  and  _261
REMARK  110  A    between atoms: _260  and  _263
REMARK  111  A    between atoms: _263  and  _264
REMARK  112  A    between atoms: _269  and  _270
REMARK  113  A    between atoms: _272  and  _274
REMARK  114  A    between atoms: _274  and  _275
REMARK  115  A    between atoms: _274  and  _277
REMARK  116  A    between atoms: _277  and  _278
REMARK  117  A    between atoms: _283  and  _285
REMARK  118  A    between atoms: _285  and  _286
REMARK  119  A    between atoms: _288  and  _290
REMARK  120  A    between atoms: _290  and  _291
REMARK  121  A    between atoms: _290  and  _293
REMARK  122  A    between atoms: _293  and  _294
REMARK  123  A    between atoms: _299  and  _301
REMARK  124  A    between atoms: _301  and  _302
REMARK  125  A    between atoms: _301  and  _304
REMARK  126  A    between atoms: _307  and  _309
REMARK  127  A    between atoms: _309  and  _310
REMARK  128  A    between atoms: _309  and  _312
REMARK  129  A    between atoms: _312  and  _313
REMARK  130  A    between atoms: _316  and  _318
REMARK  131  A    between atoms: _318  and  _319
REMARK  132  A    between atoms: _318  and  _321
REMARK  133  A    between atoms: _321  and  _322
REMARK  134  A    between atoms: _325  and  _327
REMARK  135  A    between atoms: _327  and  _328
REMARK  136  A    between atoms: _327  and  _330
REMARK  137  A    between atoms: _330  and  _331
REMARK  138  A    between atoms: _334  and  _336
REMARK  139  A    between atoms: _336  and  _337
REMARK  140  A    between atoms: _336  and  _339
REMARK  141  A    between atoms: _339  and  _340
REMARK                            x       y       z     vdW  Elec       q    Type
REMARK                         _______ _______ _______ _____ _____    ______ ____
ROOT
ATOM      1  O   HOH     1       6.215  32.322   9.278  0.00  0.00    +0.000 OA
ENDROOT
TORSDOF 0
REMARK  Name = ../refined-set-2016/2p09/2p09_pocket.pdb
REMARK  141 active torsions:
REMARK  status: ('A' for Active; 'I' for Inactive)
REMARK    1  A    between atoms: _1  and  _3
REMARK    2  A    between atoms: _3  and  _4
REMARK    3  A    between atoms: _3  and  _6
REMARK    4  A    between atoms: _8  and  _10
REMARK    5  A    between atoms: _10  and  _11
REMARK    6  A    between atoms: _10  and  _13
REMARK    7  A    between atoms: _16  and  _18
REMARK    8  A    between atoms: _18  and  _19
REMARK    9  A    between atoms: _18  and  _21
REMARK   10  A    between atoms: _21  and  _22
REMARK   11  A    between atoms: _22  and  _23
REMARK   12  A    between atoms: _23  and  _24
REMARK   13  A    between atoms: _24  and  _25
REMARK   14  A    between atoms: _30  and  _31
REMARK   15  A    between atoms: _36  and  _38
REMARK   16  A    between atoms: _38  and  _39
REMARK   17  A    between atoms: _38  and  _41
REMARK   18  A    between atoms: _41  and  _42
REMARK   19  A    between atoms: _42  and  _43
REMARK   20  A    between atoms: _43  and  _44
REMARK   21  A    between atoms: _53  and  _55
REMARK   22  A    between atoms: _55  and  _56
REMARK   23  A    between atoms: _55  and  _58
REMARK   24  A    between atoms: _58  and  _59
REMARK   25  A    between atoms: _62  and  _64
REMARK   26  A    between atoms: _64  and  _65
REMARK   27  A    between atoms: _64  and  _67
REMARK   28  A    between atoms: _67  and  _68
REMARK   29  A    between atoms: _78  and  _80
REMARK   30  A    between atoms: _80  and  _81
REMARK   31  A    between atoms: _80  and  _83
REMARK   32  A    between atoms: _83  and  _84
REMARK   33  A    between atoms: _84  and  _85
REMARK   34  A    between atoms: _85  and  _86
REMARK   35  A    between atoms: _86  and  _87
REMARK   36  A    between atoms: _91  and  _93
REMARK   37  A    between atoms: _93  and  _94
REMARK   38  A    between atoms: _93  and  _96
REMARK   39  A    between atoms: _96  and  _97
REMARK   40  A    between atoms: _97  and  _98
REMARK   41  A    between atoms: _98  and  _99
REMARK   42  A    between atoms: _99  and  _100
REMARK   43  A    between atoms: _104  and  _106
REMARK   44  A    between atoms: _106  and  _107
REMARK   45  A    between atoms: _106  and  _109
REMARK   46  A    between atoms: _109  and  _110
REMARK   47  A    between atoms: _110  and  _111
REMARK   48  A    between atoms: _111  and  _112
REMARK   49  A    between atoms: _121  and  _123
REMARK   50  A    between atoms: _123  and  _124
REMARK   51  A    between atoms: _123  and  _126
REMARK   52  A    between atoms: _126  and  _127
REMARK   53  A    between atoms: _130  and  _132
REMARK   54  A    between atoms: _132  and  _133
REMARK   55  A    between atoms: _132  and  _135
REMARK   56  A    between atoms: _135  and  _136
REMARK   57  A    between atoms: _141  and  _142
REMARK   58  A    between atoms: _144  and  _146
REMARK   59  A    between atoms: _146  and  _147
REMARK   60  A    between atoms: _146  and  _149
REMARK   61  A    between atoms: _149  and  _150
REMARK   62  A    between atoms: _155  and  _157
REMARK   63  A    between atoms: _157  and  _158
REMARK   64  A    between atoms: _157  and  _160
REMARK   65  A    between atoms: _160  and  _161
REMARK   66  A    between atoms: _161  and  _162
REMARK   67  A    between atoms: _164  and  _166
REMARK   68  A    between atoms: _166  and  _167
REMARK   69  A    between atoms: _166  and  _169
REMARK   70  A    between atoms: _171  and  _173
REMARK   71  A    between atoms: _173  and  _174
REMARK   72  A    between atoms: _173  and  _176
REMARK   73  A    between atoms: _176  and  _177
REMARK   74  A    between atoms: _177  and  _178
REMARK   75  A    between atoms: _178  and  _179
REMARK   76  A    between atoms: _179  and  _180
REMARK   77  A    between atoms: _184  and  _186
REMARK   78  A    between atoms: _186  and  _187
REMARK   79  A    between atoms: _186  and  _189
REMARK   80  A    between atoms: _189  and  _190
REMARK   81  A    between atoms: _193  and  _195
REMARK   82  A    between atoms: _195  and  _196
REMARK   83  A    between atoms: _195  and  _198
REMARK   84  A    between atoms: _200  and  _202
REMARK   85  A    between atoms: _202  and  _203
REMARK   86  A    between atoms: _202  and  _205
REMARK   87  A    between atoms: _205  and  _206
REMARK   88  A    between atoms: _212  and  _214
REMARK   89  A    between atoms: _214  and  _215
REMARK   90  A    between atoms: _214  and  _217
REMARK   91  A    between atoms: _217  and  _218
REMARK   92  A    between atoms: _223  and  _225
REMARK   93  A    between atoms: _225  and  _226
REMARK   94  A    between atoms: _225  and  _228
REMARK   95  A    between atoms: _228  and  _229
REMARK   96  A    between atoms: _231  and  _233
REMARK   97  A    between atoms: _233  and  _234
REMARK   98  A    between atoms: _233  and  _236
REMARK   99  A    between atoms: _236  and  _237
REMARK  100  A    between atoms: _240  and  _242
REMARK  101  A    between atoms: _242  and  _243
REMARK  102  A    between atoms: _242  and  _245
REMARK  103  A    between atoms: _245  and  _246
REMARK  104  A    between atoms: _249  and  _251
REMARK  105  A    between atoms: _251  and  _252
REMARK  106  A    between atoms: _251  and  _254
REMARK  107  A    between atoms: _254  and  _255
REMARK  108  A    between atoms: _258  and  _260
REMARK  109  A    between atoms: _260  and  _261
REMARK  110  A    between atoms: _260  and  _263
REMARK  111  A    between atoms: _263  and  _264
REMARK  112  A    between atoms: _269  and  _270
REMARK  113  A    between atoms: _272  and  _274
REMARK  114  A    between atoms: _274  and  _275
REMARK  115  A    between atoms: _274  and  _277
REMARK  116  A    between atoms: _277  and  _278
REMARK  117  A    between atoms: _283  and  _285
REMARK  118  A    between atoms: _285  and  _286
REMARK  119  A    between atoms: _288  and  _290
REMARK  120  A    between atoms: _290  and  _291
REMARK  121  A    between atoms: _290  and  _293
REMARK  122  A    between atoms: _293  and  _294
REMARK  123  A    between atoms: _299  and  _301
REMARK  124  A    between atoms: _301  and  _302
REMARK  125  A    between atoms: _301  and  _304
REMARK  126  A    between atoms: _307  and  _309
REMARK  127  A    between atoms: _309  and  _310
REMARK  128  A    between atoms: _309  and  _312
REMARK  129  A    between atoms: _312  and  _313
REMARK  130  A    between atoms: _316  and  _318
REMARK  131  A    between atoms: _318  and  _319
REMARK  132  A    between atoms: _318  and  _321
REMARK  133  A    between atoms: _321  and  _322
REMARK  134  A    between atoms: _325  and  _327
REMARK  135  A    between atoms: _327  and  _328
REMARK  136  A    between atoms: _327  and  _330
REMARK  137  A    between atoms: _330  and  _331
REMARK  138  A    between atoms: _334  and  _336
REMARK  139  A    between atoms: _336  and  _337
REMARK  140  A    between atoms: _336  and  _339
REMARK  141  A    between atoms: _339  and  _340
REMARK                            x       y       z     vdW  Elec       q    Type
REMARK                         _______ _______ _______ _____ _____    ______ ____
ROOT
ATOM      1  O   HOH     1       2.272  26.286  16.439  0.00  0.00    +0.000 OA
ENDROOT
TORSDOF 0
REMARK  Name = ../refined-set-2016/2p09/2p09_pocket.pdb
REMARK  141 active torsions:
REMARK  status: ('A' for Active; 'I' for Inactive)
REMARK    1  A    between atoms: _1  and  _3
REMARK    2  A    between atoms: _3  and  _4
REMARK    3  A    between atoms: _3  and  _6
REMARK    4  A    between atoms: _8  and  _10
REMARK    5  A    between atoms: _10  and  _11
REMARK    6  A    between atoms: _10  and  _13
REMARK    7  A    between atoms: _16  and  _18
REMARK    8  A    between atoms: _18  and  _19
REMARK    9  A    between atoms: _18  and  _21
REMARK   10  A    between atoms: _21  and  _22
REMARK   11  A    between atoms: _22  and  _23
REMARK   12  A    between atoms: _23  and  _24
REMARK   13  A    between atoms: _24  and  _25
REMARK   14  A    between atoms: _30  and  _31
REMARK   15  A    between atoms: _36  and  _38
REMARK   16  A    between atoms: _38  and  _39
REMARK   17  A    between atoms: _38  and  _41
REMARK   18  A    between atoms: _41  and  _42
REMARK   19  A    between atoms: _42  and  _43
REMARK   20  A    between atoms: _43  and  _44
REMARK   21  A    between atoms: _53  and  _55
REMARK   22  A    between atoms: _55  and  _56
REMARK   23  A    between atoms: _55  and  _58
REMARK   24  A    between atoms: _58  and  _59
REMARK   25  A    between atoms: _62  and  _64
REMARK   26  A    between atoms: _64  and  _65
REMARK   27  A    between atoms: _64  and  _67
REMARK   28  A    between atoms: _67  and  _68
REMARK   29  A    between atoms: _78  and  _80
REMARK   30  A    between atoms: _80  and  _81
REMARK   31  A    between atoms: _80  and  _83
REMARK   32  A    between atoms: _83  and  _84
REMARK   33  A    between atoms: _84  and  _85
REMARK   34  A    between atoms: _85  and  _86
REMARK   35  A    between atoms: _86  and  _87
REMARK   36  A    between atoms: _91  and  _93
REMARK   37  A    between atoms: _93  and  _94
REMARK   38  A    between atoms: _93  and  _96
REMARK   39  A    between atoms: _96  and  _97
REMARK   40  A    between atoms: _97  and  _98
REMARK   41  A    between atoms: _98  and  _99
REMARK   42  A    between atoms: _99  and  _100
REMARK   43  A    between atoms: _104  and  _106
REMARK   44  A    between atoms: _106  and  _107
REMARK   45  A    between atoms: _106  and  _109
REMARK   46  A    between atoms: _109  and  _110
REMARK   47  A    between atoms: _110  and  _111
REMARK   48  A    between atoms: _111  and  _112
REMARK   49  A    between atoms: _121  and  _123
REMARK   50  A    between atoms: _123  and  _124
REMARK   51  A    between atoms: _123  and  _126
REMARK   52  A    between atoms: _126  and  _127
REMARK   53  A    between atoms: _130  and  _132
REMARK   54  A    between atoms: _132  and  _133
REMARK   55  A    between atoms: _132  and  _135
REMARK   56  A    between atoms: _135  and  _136
REMARK   57  A    between atoms: _141  and  _142
REMARK   58  A    between atoms: _144  and  _146
REMARK   59  A    between atoms: _146  and  _147
REMARK   60  A    between atoms: _146  and  _149
REMARK   61  A    between atoms: _149  and  _150
REMARK   62  A    between atoms: _155  and  _157
REMARK   63  A    between atoms: _157  and  _158
REMARK   64  A    between atoms: _157  and  _160
REMARK   65  A    between atoms: _160  and  _161
REMARK   66  A    between atoms: _161  and  _162
REMARK   67  A    between atoms: _164  and  _166
REMARK   68  A    between atoms: _166  and  _167
REMARK   69  A    between atoms: _166  and  _169
REMARK   70  A    between atoms: _171  and  _173
REMARK   71  A    between atoms: _173  and  _174
REMARK   72  A    between atoms: _173  and  _176
REMARK   73  A    between atoms: _176  and  _177
REMARK   74  A    between atoms: _177  and  _178
REMARK   75  A    between atoms: _178  and  _179
REMARK   76  A    between atoms: _179  and  _180
REMARK   77  A    between atoms: _184  and  _186
REMARK   78  A    between atoms: _186  and  _187
REMARK   79  A    between atoms: _186  and  _189
REMARK   80  A    between atoms: _189  and  _190
REMARK   81  A    between atoms: _193  and  _195
REMARK   82  A    between atoms: _195  and  _196
REMARK   83  A    between atoms: _195  and  _198
REMARK   84  A    between atoms: _200  and  _202
REMARK   85  A    between atoms: _202  and  _203
REMARK   86  A    between atoms: _202  and  _205
REMARK   87  A    between atoms: _205  and  _206
REMARK   88  A    between atoms: _212  and  _214
REMARK   89  A    between atoms: _214  and  _215
REMARK   90  A    between atoms: _214  and  _217
REMARK   91  A    between atoms: _217  and  _218
REMARK   92  A    between atoms: _223  and  _225
REMARK   93  A    between atoms: _225  and  _226
REMARK   94  A    between atoms: _225  and  _228
REMARK   95  A    between atoms: _228  and  _229
REMARK   96  A    between atoms: _231  and  _233
REMARK   97  A    between atoms: _233  and  _234
REMARK   98  A    between atoms: _233  and  _236
REMARK   99  A    between atoms: _236  and  _237
REMARK  100  A    between atoms: _240  and  _242
REMARK  101  A    between atoms: _242  and  _243
REMARK  102  A    between atoms: _242  and  _245
REMARK  103  A    between atoms: _245  and  _246
REMARK  104  A    between atoms: _249  and  _251
REMARK  105  A    between atoms: _251  and  _252
REMARK  106  A    between atoms: _251  and  _254
REMARK  107  A    between atoms: _254  and  _255
REMARK  108  A    between atoms: _258  and  _260
REMARK  109  A    between atoms: _260  and  _261
REMARK  110  A    between atoms: _260  and  _263
REMARK  111  A    between atoms: _263  and  _264
REMARK  112  A    between atoms: _269  and  _270
REMARK  113  A    between atoms: _272  and  _274
REMARK  114  A    between atoms: _274  and  _275
REMARK  115  A    between atoms: _274  and  _277
REMARK  116  A    between atoms: _277  and  _278
REMARK  117  A    between atoms: _283  and  _285
REMARK  118  A    between atoms: _285  and  _286
REMARK  119  A    between atoms: _288  and  _290
REMARK  120  A    between atoms: _290  and  _291
REMARK  121  A    between atoms: _290  and  _293
REMARK  122  A    between atoms: _293  and  _294
REMARK  123  A    between atoms: _299  and  _301
REMARK  124  A    between atoms: _301  and  _302
REMARK  125  A    between atoms: _301  and  _304
REMARK  126  A    between atoms: _307  and  _309
REMARK  127  A    between atoms: _309  and  _310
REMARK  128  A    between atoms: _309  and  _312
REMARK  129  A    between atoms: _312  and  _313
REMARK  130  A    between atoms: _316  and  _318
REMARK  131  A    between atoms: _318  and  _319
REMARK  132  A    between atoms: _318  and  _321
REMARK  133  A    between atoms: _321  and  _322
REMARK  134  A    between atoms: _325  and  _327
REMARK  135  A    between atoms: _327  and  _328
REMARK  136  A    between atoms: _327  and  _330
REMARK  137  A    between atoms: _330  and  _331
REMARK  138  A    between atoms: _334  and  _336
REMARK  139  A    between atoms: _336  and  _337
REMARK  140  A    between atoms: _336  and  _339
REMARK  141  A    between atoms: _339  and  _340
REMARK                            x       y       z     vdW  Elec       q    Type
REMARK                         _______ _______ _______ _____ _____    ______ ____
ROOT
ATOM      1  O   HOH     1      -1.188  32.179  13.368  0.00  0.00    +0.000 OA
ENDROOT
TORSDOF 0
REMARK  Name = ../refined-set-2016/2p09/2p09_pocket.pdb
REMARK  141 active torsions:
REMARK  status: ('A' for Active; 'I' for Inactive)
REMARK    1  A    between atoms: _1  and  _3
REMARK    2  A    between atoms: _3  and  _4
REMARK    3  A    between atoms: _3  and  _6
REMARK    4  A    between atoms: _8  and  _10
REMARK    5  A    between atoms: _10  and  _11
REMARK    6  A    between atoms: _10  and  _13
REMARK    7  A    between atoms: _16  and  _18
REMARK    8  A    between atoms: _18  and  _19
REMARK    9  A    between atoms: _18  and  _21
REMARK   10  A    between atoms: _21  and  _22
REMARK   11  A    between atoms: _22  and  _23
REMARK   12  A    between atoms: _23  and  _24
REMARK   13  A    between atoms: _24  and  _25
REMARK   14  A    between atoms: _30  and  _31
REMARK   15  A    between atoms: _36  and  _38
REMARK   16  A    between atoms: _38  and  _39
REMARK   17  A    between atoms: _38  and  _41
REMARK   18  A    between atoms: _41  and  _42
REMARK   19  A    between atoms: _42  and  _43
REMARK   20  A    between atoms: _43  and  _44
REMARK   21  A    between atoms: _53  and  _55
REMARK   22  A    between atoms: _55  and  _56
REMARK   23  A    between atoms: _55  and  _58
REMARK   24  A    between atoms: _58  and  _59
REMARK   25  A    between atoms: _62  and  _64
REMARK   26  A    between atoms: _64  and  _65
REMARK   27  A    between atoms: _64  and  _67
REMARK   28  A    between atoms: _67  and  _68
REMARK   29  A    between atoms: _78  and  _80
REMARK   30  A    between atoms: _80  and  _81
REMARK   31  A    between atoms: _80  and  _83
REMARK   32  A    between atoms: _83  and  _84
REMARK   33  A    between atoms: _84  and  _85
REMARK   34  A    between atoms: _85  and  _86
REMARK   35  A    between atoms: _86  and  _87
REMARK   36  A    between atoms: _91  and  _93
REMARK   37  A    between atoms: _93  and  _94
REMARK   38  A    between atoms: _93  and  _96
REMARK   39  A    between atoms: _96  and  _97
REMARK   40  A    between atoms: _97  and  _98
REMARK   41  A    between atoms: _98  and  _99
REMARK   42  A    between atoms: _99  and  _100
REMARK   43  A    between atoms: _104  and  _106
REMARK   44  A    between atoms: _106  and  _107
REMARK   45  A    between atoms: _106  and  _109
REMARK   46  A    between atoms: _109  and  _110
REMARK   47  A    between atoms: _110  and  _111
REMARK   48  A    between atoms: _111  and  _112
REMARK   49  A    between atoms: _121  and  _123
REMARK   50  A    between atoms: _123  and  _124
REMARK   51  A    between atoms: _123  and  _126
REMARK   52  A    between atoms: _126  and  _127
REMARK   53  A    between atoms: _130  and  _132
REMARK   54  A    between atoms: _132  and  _133
REMARK   55  A    between atoms: _132  and  _135
REMARK   56  A    between atoms: _135  and  _136
REMARK   57  A    between atoms: _141  and  _142
REMARK   58  A    between atoms: _144  and  _146
REMARK   59  A    between atoms: _146  and  _147
REMARK   60  A    between atoms: _146  and  _149
REMARK   61  A    between atoms: _149  and  _150
REMARK   62  A    between atoms: _155  and  _157
REMARK   63  A    between atoms: _157  and  _158
REMARK   64  A    between atoms: _157  and  _160
REMARK   65  A    between atoms: _160  and  _161
REMARK   66  A    between atoms: _161  and  _162
REMARK   67  A    between atoms: _164  and  _166
REMARK   68  A    between atoms: _166  and  _167
REMARK   69  A    between atoms: _166  and  _169
REMARK   70  A    between atoms: _171  and  _173
REMARK   71  A    between atoms: _173  and  _174
REMARK   72  A    between atoms: _173  and  _176
REMARK   73  A    between atoms: _176  and  _177
REMARK   74  A    between atoms: _177  and  _178
REMARK   75  A    between atoms: _178  and  _179
REMARK   76  A    between atoms: _179  and  _180
REMARK   77  A    between atoms: _184  and  _186
REMARK   78  A    between atoms: _186  and  _187
REMARK   79  A    between atoms: _186  and  _189
REMARK   80  A    between atoms: _189  and  _190
REMARK   81  A    between atoms: _193  and  _195
REMARK   82  A    between atoms: _195  and  _196
REMARK   83  A    between atoms: _195  and  _198
REMARK   84  A    between atoms: _200  and  _202
REMARK   85  A    between atoms: _202  and  _203
REMARK   86  A    between atoms: _202  and  _205
REMARK   87  A    between atoms: _205  and  _206
REMARK   88  A    between atoms: _212  and  _214
REMARK   89  A    between atoms: _214  and  _215
REMARK   90  A    between atoms: _214  and  _217
REMARK   91  A    between atoms: _217  and  _218
REMARK   92  A    between atoms: _223  and  _225
REMARK   93  A    between atoms: _225  and  _226
REMARK   94  A    between atoms: _225  and  _228
REMARK   95  A    between atoms: _228  and  _229
REMARK   96  A    between atoms: _231  and  _233
REMARK   97  A    between atoms: _233  and  _234
REMARK   98  A    between atoms: _233  and  _236
REMARK   99  A    between atoms: _236  and  _237
REMARK  100  A    between atoms: _240  and  _242
REMARK  101  A    between atoms: _242  and  _243
REMARK  102  A    between atoms: _242  and  _245
REMARK  103  A    between atoms: _245  and  _246
REMARK  104  A    between atoms: _249  and  _251
REMARK  105  A    between atoms: _251  and  _252
REMARK  106  A    between atoms: _251  and  _254
REMARK  107  A    between atoms: _254  and  _255
REMARK  108  A    between atoms: _258  and  _260
REMARK  109  A    between atoms: _260  and  _261
REMARK  110  A    between atoms: _260  and  _263
REMARK  111  A    between atoms: _263  and  _264
REMARK  112  A    between atoms: _269  and  _270
REMARK  113  A    between atoms: _272  and  _274
REMARK  114  A    between atoms: _274  and  _275
REMARK  115  A    between atoms: _274  and  _277
REMARK  116  A    between atoms: _277  and  _278
REMARK  117  A    between atoms: _283  and  _285
REMARK  118  A    between atoms: _285  and  _286
REMARK  119  A    between atoms: _288  and  _290
REMARK  120  A    between atoms: _290  and  _291
REMARK  121  A    between atoms: _290  and  _293
REMARK  122  A    between atoms: _293  and  _294
REMARK  123  A    between atoms: _299  and  _301
REMARK  124  A    between atoms: _301  and  _302
REMARK  125  A    between atoms: _301  and  _304
REMARK  126  A    between atoms: _307  and  _309
REMARK  127  A    between atoms: _309  and  _310
REMARK  128  A    between atoms: _309  and  _312
REMARK  129  A    between atoms: _312  and  _313
REMARK  130  A    between atoms: _316  and  _318
REMARK  131  A    between atoms: _318  and  _319
REMARK  132  A    between atoms: _318  and  _321
REMARK  133  A    between atoms: _321  and  _322
REMARK  134  A    between atoms: _325  and  _327
REMARK  135  A    between atoms: _327  and  _328
REMARK  136  A    between atoms: _327  and  _330
REMARK  137  A    between atoms: _330  and  _331
REMARK  138  A    between atoms: _334  and  _336
REMARK  139  A    between atoms: _336  and  _337
REMARK  140  A    between atoms: _336  and  _339
REMARK  141  A    between atoms: _339  and  _340
REMARK                            x       y       z     vdW  Elec       q    Type
REMARK                         _______ _______ _______ _____ _____    ______ ____
ROOT
ATOM      1  O   HOH     1       4.155  30.553  10.038  0.00  0.00    +0.000 OA
ENDROOT
TORSDOF 0
REMARK  Name = ../refined-set-2016/2p09/2p09_pocket.pdb
REMARK  141 active torsions:
REMARK  status: ('A' for Active; 'I' for Inactive)
REMARK    1  A    between atoms: _1  and  _3
REMARK    2  A    between atoms: _3  and  _4
REMARK    3  A    between atoms: _3  and  _6
REMARK    4  A    between atoms: _8  and  _10
REMARK    5  A    between atoms: _10  and  _11
REMARK    6  A    between atoms: _10  and  _13
REMARK    7  A    between atoms: _16  and  _18
REMARK    8  A    between atoms: _18  and  _19
REMARK    9  A    between atoms: _18  and  _21
REMARK   10  A    between atoms: _21  and  _22
REMARK   11  A    between atoms: _22  and  _23
REMARK   12  A    between atoms: _23  and  _24
REMARK   13  A    between atoms: _24  and  _25
REMARK   14  A    between atoms: _30  and  _31
REMARK   15  A    between atoms: _36  and  _38
REMARK   16  A    between atoms: _38  and  _39
REMARK   17  A    between atoms: _38  and  _41
REMARK   18  A    between atoms: _41  and  _42
REMARK   19  A    between atoms: _42  and  _43
REMARK   20  A    between atoms: _43  and  _44
REMARK   21  A    between atoms: _53  and  _55
REMARK   22  A    between atoms: _55  and  _56
REMARK   23  A    between atoms: _55  and  _58
REMARK   24  A    between atoms: _58  and  _59
REMARK   25  A    between atoms: _62  and  _64
REMARK   26  A    between atoms: _64  and  _65
REMARK   27  A    between atoms: _64  and  _67
REMARK   28  A    between atoms: _67  and  _68
REMARK   29  A    between atoms: _78  and  _80
REMARK   30  A    between atoms: _80  and  _81
REMARK   31  A    between atoms: _80  and  _83
REMARK   32  A    between atoms: _83  and  _84
REMARK   33  A    between atoms: _84  and  _85
REMARK   34  A    between atoms: _85  and  _86
REMARK   35  A    between atoms: _86  and  _87
REMARK   36  A    between atoms: _91  and  _93
REMARK   37  A    between atoms: _93  and  _94
REMARK   38  A    between atoms: _93  and  _96
REMARK   39  A    between atoms: _96  and  _97
REMARK   40  A    between atoms: _97  and  _98
REMARK   41  A    between atoms: _98  and  _99
REMARK   42  A    between atoms: _99  and  _100
REMARK   43  A    between atoms: _104  and  _106
REMARK   44  A    between atoms: _106  and  _107
REMARK   45  A    between atoms: _106  and  _109
REMARK   46  A    between atoms: _109  and  _110
REMARK   47  A    between atoms: _110  and  _111
REMARK   48  A    between atoms: _111  and  _112
REMARK   49  A    between atoms: _121  and  _123
REMARK   50  A    between atoms: _123  and  _124
REMARK   51  A    between atoms: _123  and  _126
REMARK   52  A    between atoms: _126  and  _127
REMARK   53  A    between atoms: _130  and  _132
REMARK   54  A    between atoms: _132  and  _133
REMARK   55  A    between atoms: _132  and  _135
REMARK   56  A    between atoms: _135  and  _136
REMARK   57  A    between atoms: _141  and  _142
REMARK   58  A    between atoms: _144  and  _146
REMARK   59  A    between atoms: _146  and  _147
REMARK   60  A    between atoms: _146  and  _149
REMARK   61  A    between atoms: _149  and  _150
REMARK   62  A    between atoms: _155  and  _157
REMARK   63  A    between atoms: _157  and  _158
REMARK   64  A    between atoms: _157  and  _160
REMARK   65  A    between atoms: _160  and  _161
REMARK   66  A    between atoms: _161  and  _162
REMARK   67  A    between atoms: _164  and  _166
REMARK   68  A    between atoms: _166  and  _167
REMARK   69  A    between atoms: _166  and  _169
REMARK   70  A    between atoms: _171  and  _173
REMARK   71  A    between atoms: _173  and  _174
REMARK   72  A    between atoms: _173  and  _176
REMARK   73  A    between atoms: _176  and  _177
REMARK   74  A    between atoms: _177  and  _178
REMARK   75  A    between atoms: _178  and  _179
REMARK   76  A    between atoms: _179  and  _180
REMARK   77  A    between atoms: _184  and  _186
REMARK   78  A    between atoms: _186  and  _187
REMARK   79  A    between atoms: _186  and  _189
REMARK   80  A    between atoms: _189  and  _190
REMARK   81  A    between atoms: _193  and  _195
REMARK   82  A    between atoms: _195  and  _196
REMARK   83  A    between atoms: _195  and  _198
REMARK   84  A    between atoms: _200  and  _202
REMARK   85  A    between atoms: _202  and  _203
REMARK   86  A    between atoms: _202  and  _205
REMARK   87  A    between atoms: _205  and  _206
REMARK   88  A    between atoms: _212  and  _214
REMARK   89  A    between atoms: _214  and  _215
REMARK   90  A    between atoms: _214  and  _217
REMARK   91  A    between atoms: _217  and  _218
REMARK   92  A    between atoms: _223  and  _225
REMARK   93  A    between atoms: _225  and  _226
REMARK   94  A    between atoms: _225  and  _228
REMARK   95  A    between atoms: _228  and  _229
REMARK   96  A    between atoms: _231  and  _233
REMARK   97  A    between atoms: _233  and  _234
REMARK   98  A    between atoms: _233  and  _236
REMARK   99  A    between atoms: _236  and  _237
REMARK  100  A    between atoms: _240  and  _242
REMARK  101  A    between atoms: _242  and  _243
REMARK  102  A    between atoms: _242  and  _245
REMARK  103  A    between atoms: _245  and  _246
REMARK  104  A    between atoms: _249  and  _251
REMARK  105  A    between atoms: _251  and  _252
REMARK  106  A    between atoms: _251  and  _254
REMARK  107  A    between atoms: _254  and  _255
REMARK  108  A    between atoms: _258  and  _260
REMARK  109  A    between atoms: _260  and  _261
REMARK  110  A    between atoms: _260  and  _263
REMARK  111  A    between atoms: _263  and  _264
REMARK  112  A    between atoms: _269  and  _270
REMARK  113  A    between atoms: _272  and  _274
REMARK  114  A    between atoms: _274  and  _275
REMARK  115  A    between atoms: _274  and  _277
REMARK  116  A    between atoms: _277  and  _278
REMARK  117  A    between atoms: _283  and  _285
REMARK  118  A    between atoms: _285  and  _286
REMARK  119  A    between atoms: _288  and  _290
REMARK  120  A    between atoms: _290  and  _291
REMARK  121  A    between atoms: _290  and  _293
REMARK  122  A    between atoms: _293  and  _294
REMARK  123  A    between atoms: _299  and  _301
REMARK  124  A    between atoms: _301  and  _302
REMARK  125  A    between atoms: _301  and  _304
REMARK  126  A    between atoms: _307  and  _309
REMARK  127  A    between atoms: _309  and  _310
REMARK  128  A    between atoms: _309  and  _312
REMARK  129  A    between atoms: _312  and  _313
REMARK  130  A    between atoms: _316  and  _318
REMARK  131  A    between atoms: _318  and  _319
REMARK  132  A    between atoms: _318  and  _321
REMARK  133  A    between atoms: _321  and  _322
REMARK  134  A    between atoms: _325  and  _327
REMARK  135  A    between atoms: _327  and  _328
REMARK  136  A    between atoms: _327  and  _330
REMARK  137  A    between atoms: _330  and  _331
REMARK  138  A    between atoms: _334  and  _336
REMARK  139  A    between atoms: _336  and  _337
REMARK  140  A    between atoms: _336  and  _339
REMARK  141  A    between atoms: _339  and  _340
REMARK                            x       y       z     vdW  Elec       q    Type
REMARK                         _______ _______ _______ _____ _____    ______ ____
ROOT
ATOM      1  O   HOH     1      -1.461  26.424  26.001  0.00  0.00    +0.000 OA
ENDROOT
TORSDOF 0
REMARK  Name = ../refined-set-2016/2p09/2p09_pocket.pdb
REMARK  141 active torsions:
REMARK  status: ('A' for Active; 'I' for Inactive)
REMARK    1  A    between atoms: _1  and  _3
REMARK    2  A    between atoms: _3  and  _4
REMARK    3  A    between atoms: _3  and  _6
REMARK    4  A    between atoms: _8  and  _10
REMARK    5  A    between atoms: _10  and  _11
REMARK    6  A    between atoms: _10  and  _13
REMARK    7  A    between atoms: _16  and  _18
REMARK    8  A    between atoms: _18  and  _19
REMARK    9  A    between atoms: _18  and  _21
REMARK   10  A    between atoms: _21  and  _22
REMARK   11  A    between atoms: _22  and  _23
REMARK   12  A    between atoms: _23  and  _24
REMARK   13  A    between atoms: _24  and  _25
REMARK   14  A    between atoms: _30  and  _31
REMARK   15  A    between atoms: _36  and  _38
REMARK   16  A    between atoms: _38  and  _39
REMARK   17  A    between atoms: _38  and  _41
REMARK   18  A    between atoms: _41  and  _42
REMARK   19  A    between atoms: _42  and  _43
REMARK   20  A    between atoms: _43  and  _44
REMARK   21  A    between atoms: _53  and  _55
REMARK   22  A    between atoms: _55  and  _56
REMARK   23  A    between atoms: _55  and  _58
REMARK   24  A    between atoms: _58  and  _59
REMARK   25  A    between atoms: _62  and  _64
REMARK   26  A    between atoms: _64  and  _65
REMARK   27  A    between atoms: _64  and  _67
REMARK   28  A    between atoms: _67  and  _68
REMARK   29  A    between atoms: _78  and  _80
REMARK   30  A    between atoms: _80  and  _81
REMARK   31  A    between atoms: _80  and  _83
REMARK   32  A    between atoms: _83  and  _84
REMARK   33  A    between atoms: _84  and  _85
REMARK   34  A    between atoms: _85  and  _86
REMARK   35  A    between atoms: _86  and  _87
REMARK   36  A    between atoms: _91  and  _93
REMARK   37  A    between atoms: _93  and  _94
REMARK   38  A    between atoms: _93  and  _96
REMARK   39  A    between atoms: _96  and  _97
REMARK   40  A    between atoms: _97  and  _98
REMARK   41  A    between atoms: _98  and  _99
REMARK   42  A    between atoms: _99  and  _100
REMARK   43  A    between atoms: _104  and  _106
REMARK   44  A    between atoms: _106  and  _107
REMARK   45  A    between atoms: _106  and  _109
REMARK   46  A    between atoms: _109  and  _110
REMARK   47  A    between atoms: _110  and  _111
REMARK   48  A    between atoms: _111  and  _112
REMARK   49  A    between atoms: _121  and  _123
REMARK   50  A    between atoms: _123  and  _124
REMARK   51  A    between atoms: _123  and  _126
REMARK   52  A    between atoms: _126  and  _127
REMARK   53  A    between atoms: _130  and  _132
REMARK   54  A    between atoms: _132  and  _133
REMARK   55  A    between atoms: _132  and  _135
REMARK   56  A    between atoms: _135  and  _136
REMARK   57  A    between atoms: _141  and  _142
REMARK   58  A    between atoms: _144  and  _146
REMARK   59  A    between atoms: _146  and  _147
REMARK   60  A    between atoms: _146  and  _149
REMARK   61  A    between atoms: _149  and  _150
REMARK   62  A    between atoms: _155  and  _157
REMARK   63  A    between atoms: _157  and  _158
REMARK   64  A    between atoms: _157  and  _160
REMARK   65  A    between atoms: _160  and  _161
REMARK   66  A    between atoms: _161  and  _162
REMARK   67  A    between atoms: _164  and  _166
REMARK   68  A    between atoms: _166  and  _167
REMARK   69  A    between atoms: _166  and  _169
REMARK   70  A    between atoms: _171  and  _173
REMARK   71  A    between atoms: _173  and  _174
REMARK   72  A    between atoms: _173  and  _176
REMARK   73  A    between atoms: _176  and  _177
REMARK   74  A    between atoms: _177  and  _178
REMARK   75  A    between atoms: _178  and  _179
REMARK   76  A    between atoms: _179  and  _180
REMARK   77  A    between atoms: _184  and  _186
REMARK   78  A    between atoms: _186  and  _187
REMARK   79  A    between atoms: _186  and  _189
REMARK   80  A    between atoms: _189  and  _190
REMARK   81  A    between atoms: _193  and  _195
REMARK   82  A    between atoms: _195  and  _196
REMARK   83  A    between atoms: _195  and  _198
REMARK   84  A    between atoms: _200  and  _202
REMARK   85  A    between atoms: _202  and  _203
REMARK   86  A    between atoms: _202  and  _205
REMARK   87  A    between atoms: _205  and  _206
REMARK   88  A    between atoms: _212  and  _214
REMARK   89  A    between atoms: _214  and  _215
REMARK   90  A    between atoms: _214  and  _217
REMARK   91  A    between atoms: _217  and  _218
REMARK   92  A    between atoms: _223  and  _225
REMARK   93  A    between atoms: _225  and  _226
REMARK   94  A    between atoms: _225  and  _228
REMARK   95  A    between atoms: _228  and  _229
REMARK   96  A    between atoms: _231  and  _233
REMARK   97  A    between atoms: _233  and  _234
REMARK   98  A    between atoms: _233  and  _236
REMARK   99  A    between atoms: _236  and  _237
REMARK  100  A    between atoms: _240  and  _242
REMARK  101  A    between atoms: _242  and  _243
REMARK  102  A    between atoms: _242  and  _245
REMARK  103  A    between atoms: _245  and  _246
REMARK  104  A    between atoms: _249  and  _251
REMARK  105  A    between atoms: _251  and  _252
REMARK  106  A    between atoms: _251  and  _254
REMARK  107  A    between atoms: _254  and  _255
REMARK  108  A    between atoms: _258  and  _260
REMARK  109  A    between atoms: _260  and  _261
REMARK  110  A    between atoms: _260  and  _263
REMARK  111  A    between atoms: _263  and  _264
REMARK  112  A    between atoms: _269  and  _270
REMARK  113  A    between atoms: _272  and  _274
REMARK  114  A    between atoms: _274  and  _275
REMARK  115  A    between atoms: _274  and  _277
REMARK  116  A    between atoms: _277  and  _278
REMARK  117  A    between atoms: _283  and  _285
REMARK  118  A    between atoms: _285  and  _286
REMARK  119  A    between atoms: _288  and  _290
REMARK  120  A    between atoms: _290  and  _291
REMARK  121  A    between atoms: _290  and  _293
REMARK  122  A    between atoms: _293  and  _294
REMARK  123  A    between atoms: _299  and  _301
REMARK  124  A    between atoms: _301  and  _302
REMARK  125  A    between atoms: _301  and  _304
REMARK  126  A    between atoms: _307  and  _309
REMARK  127  A    between atoms: _309  and  _310
REMARK  128  A    between atoms: _309  and  _312
REMARK  129  A    between atoms: _312  and  _313
REMARK  130  A    between atoms: _316  and  _318
REMARK  131  A    between atoms: _318  and  _319
REMARK  132  A    between atoms: _318  and  _321
REMARK  133  A    between atoms: _321  and  _322
REMARK  134  A    between atoms: _325  and  _327
REMARK  135  A    between atoms: _327  and  _328
REMARK  136  A    between atoms: _327  and  _330
REMARK  137  A    between atoms: _330  and  _331
REMARK  138  A    between atoms: _334  and  _336
REMARK  139  A    between atoms: _336  and  _337
REMARK  140  A    between atoms: _336  and  _339
REMARK  141  A    between atoms: _339  and  _340
REMARK                            x       y       z     vdW  Elec       q    Type
REMARK                         _______ _______ _______ _____ _____    ______ ____
ROOT
ATOM      1  O   HOH     1      -3.256  28.860  26.799  0.00  0.00    +0.000 OA
ENDROOT
TORSDOF 0
REMARK  Name = ../refined-set-2016/2p09/2p09_pocket.pdb
REMARK  141 active torsions:
REMARK  status: ('A' for Active; 'I' for Inactive)
REMARK    1  A    between atoms: _1  and  _3
REMARK    2  A    between atoms: _3  and  _4
REMARK    3  A    between atoms: _3  and  _6
REMARK    4  A    between atoms: _8  and  _10
REMARK    5  A    between atoms: _10  and  _11
REMARK    6  A    between atoms: _10  and  _13
REMARK    7  A    between atoms: _16  and  _18
REMARK    8  A    between atoms: _18  and  _19
REMARK    9  A    between atoms: _18  and  _21
REMARK   10  A    between atoms: _21  and  _22
REMARK   11  A    between atoms: _22  and  _23
REMARK   12  A    between atoms: _23  and  _24
REMARK   13  A    between atoms: _24  and  _25
REMARK   14  A    between atoms: _30  and  _31
REMARK   15  A    between atoms: _36  and  _38
REMARK   16  A    between atoms: _38  and  _39
REMARK   17  A    between atoms: _38  and  _41
REMARK   18  A    between atoms: _41  and  _42
REMARK   19  A    between atoms: _42  and  _43
REMARK   20  A    between atoms: _43  and  _44
REMARK   21  A    between atoms: _53  and  _55
REMARK   22  A    between atoms: _55  and  _56
REMARK   23  A    between atoms: _55  and  _58
REMARK   24  A    between atoms: _58  and  _59
REMARK   25  A    between atoms: _62  and  _64
REMARK   26  A    between atoms: _64  and  _65
REMARK   27  A    between atoms: _64  and  _67
REMARK   28  A    between atoms: _67  and  _68
REMARK   29  A    between atoms: _78  and  _80
REMARK   30  A    between atoms: _80  and  _81
REMARK   31  A    between atoms: _80  and  _83
REMARK   32  A    between atoms: _83  and  _84
REMARK   33  A    between atoms: _84  and  _85
REMARK   34  A    between atoms: _85  and  _86
REMARK   35  A    between atoms: _86  and  _87
REMARK   36  A    between atoms: _91  and  _93
REMARK   37  A    between atoms: _93  and  _94
REMARK   38  A    between atoms: _93  and  _96
REMARK   39  A    between atoms: _96  and  _97
REMARK   40  A    between atoms: _97  and  _98
REMARK   41  A    between atoms: _98  and  _99
REMARK   42  A    between atoms: _99  and  _100
REMARK   43  A    between atoms: _104  and  _106
REMARK   44  A    between atoms: _106  and  _107
REMARK   45  A    between atoms: _106  and  _109
REMARK   46  A    between atoms: _109  and  _110
REMARK   47  A    between atoms: _110  and  _111
REMARK   48  A    between atoms: _111  and  _112
REMARK   49  A    between atoms: _121  and  _123
REMARK   50  A    between atoms: _123  and  _124
REMARK   51  A    between atoms: _123  and  _126
REMARK   52  A    between atoms: _126  and  _127
REMARK   53  A    between atoms: _130  and  _132
REMARK   54  A    between atoms: _132  and  _133
REMARK   55  A    between atoms: _132  and  _135
REMARK   56  A    between atoms: _135  and  _136
REMARK   57  A    between atoms: _141  and  _142
REMARK   58  A    between atoms: _144  and  _146
REMARK   59  A    between atoms: _146  and  _147
REMARK   60  A    between atoms: _146  and  _149
REMARK   61  A    between atoms: _149  and  _150
REMARK   62  A    between atoms: _155  and  _157
REMARK   63  A    between atoms: _157  and  _158
REMARK   64  A    between atoms: _157  and  _160
REMARK   65  A    between atoms: _160  and  _161
REMARK   66  A    between atoms: _161  and  _162
REMARK   67  A    between atoms: _164  and  _166
REMARK   68  A    between atoms: _166  and  _167
REMARK   69  A    between atoms: _166  and  _169
REMARK   70  A    between atoms: _171  and  _173
REMARK   71  A    between atoms: _173  and  _174
REMARK   72  A    between atoms: _173  and  _176
REMARK   73  A    between atoms: _176  and  _177
REMARK   74  A    between atoms: _177  and  _178
REMARK   75  A    between atoms: _178  and  _179
REMARK   76  A    between atoms: _179  and  _180
REMARK   77  A    between atoms: _184  and  _186
REMARK   78  A    between atoms: _186  and  _187
REMARK   79  A    between atoms: _186  and  _189
REMARK   80  A    between atoms: _189  and  _190
REMARK   81  A    between atoms: _193  and  _195
REMARK   82  A    between atoms: _195  and  _196
REMARK   83  A    between atoms: _195  and  _198
REMARK   84  A    between atoms: _200  and  _202
REMARK   85  A    between atoms: _202  and  _203
REMARK   86  A    between atoms: _202  and  _205
REMARK   87  A    between atoms: _205  and  _206
REMARK   88  A    between atoms: _212  and  _214
REMARK   89  A    between atoms: _214  and  _215
REMARK   90  A    between atoms: _214  and  _217
REMARK   91  A    between atoms: _217  and  _218
REMARK   92  A    between atoms: _223  and  _225
REMARK   93  A    between atoms: _225  and  _226
REMARK   94  A    between atoms: _225  and  _228
REMARK   95  A    between atoms: _228  and  _229
REMARK   96  A    between atoms: _231  and  _233
REMARK   97  A    between atoms: _233  and  _234
REMARK   98  A    between atoms: _233  and  _236
REMARK   99  A    between atoms: _236  and  _237
REMARK  100  A    between atoms: _240  and  _242
REMARK  101  A    between atoms: _242  and  _243
REMARK  102  A    between atoms: _242  and  _245
REMARK  103  A    between atoms: _245  and  _246
REMARK  104  A    between atoms: _249  and  _251
REMARK  105  A    between atoms: _251  and  _252
REMARK  106  A    between atoms: _251  and  _254
REMARK  107  A    between atoms: _254  and  _255
REMARK  108  A    between atoms: _258  and  _260
REMARK  109  A    between atoms: _260  and  _261
REMARK  110  A    between atoms: _260  and  _263
REMARK  111  A    between atoms: _263  and  _264
REMARK  112  A    between atoms: _269  and  _270
REMARK  113  A    between atoms: _272  and  _274
REMARK  114  A    between atoms: _274  and  _275
REMARK  115  A    between atoms: _274  and  _277
REMARK  116  A    between atoms: _277  and  _278
REMARK  117  A    between atoms: _283  and  _285
REMARK  118  A    between atoms: _285  and  _286
REMARK  119  A    between atoms: _288  and  _290
REMARK  120  A    between atoms: _290  and  _291
REMARK  121  A    between atoms: _290  and  _293
REMARK  122  A    between atoms: _293  and  _294
REMARK  123  A    between atoms: _299  and  _301
REMARK  124  A    between atoms: _301  and  _302
REMARK  125  A    between atoms: _301  and  _304
REMARK  126  A    between atoms: _307  and  _309
REMARK  127  A    between atoms: _309  and  _310
REMARK  128  A    between atoms: _309  and  _312
REMARK  129  A    between atoms: _312  and  _313
REMARK  130  A    between atoms: _316  and  _318
REMARK  131  A    between atoms: _318  and  _319
REMARK  132  A    between atoms: _318  and  _321
REMARK  133  A    between atoms: _321  and  _322
REMARK  134  A    between atoms: _325  and  _327
REMARK  135  A    between atoms: _327  and  _328
REMARK  136  A    between atoms: _327  and  _330
REMARK  137  A    between atoms: _330  and  _331
REMARK  138  A    between atoms: _334  and  _336
REMARK  139  A    between atoms: _336  and  _337
REMARK  140  A    between atoms: _336  and  _339
REMARK  141  A    between atoms: _339  and  _340
REMARK                            x       y       z     vdW  Elec       q    Type
REMARK                         _______ _______ _______ _____ _____    ______ ____
ROOT
ATOM      1  O   HOH     1      11.039  36.435  13.278  0.00  0.00    +0.000 OA
ENDROOT
TORSDOF 0
REMARK  Name = ../refined-set-2016/2p09/2p09_pocket.pdb
REMARK  141 active torsions:
REMARK  status: ('A' for Active; 'I' for Inactive)
REMARK    1  A    between atoms: _1  and  _3
REMARK    2  A    between atoms: _3  and  _4
REMARK    3  A    between atoms: _3  and  _6
REMARK    4  A    between atoms: _8  and  _10
REMARK    5  A    between atoms: _10  and  _11
REMARK    6  A    between atoms: _10  and  _13
REMARK    7  A    between atoms: _16  and  _18
REMARK    8  A    between atoms: _18  and  _19
REMARK    9  A    between atoms: _18  and  _21
REMARK   10  A    between atoms: _21  and  _22
REMARK   11  A    between atoms: _22  and  _23
REMARK   12  A    between atoms: _23  and  _24
REMARK   13  A    between atoms: _24  and  _25
REMARK   14  A    between atoms: _30  and  _31
REMARK   15  A    between atoms: _36  and  _38
REMARK   16  A    between atoms: _38  and  _39
REMARK   17  A    between atoms: _38  and  _41
REMARK   18  A    between atoms: _41  and  _42
REMARK   19  A    between atoms: _42  and  _43
REMARK   20  A    between atoms: _43  and  _44
REMARK   21  A    between atoms: _53  and  _55
REMARK   22  A    between atoms: _55  and  _56
REMARK   23  A    between atoms: _55  and  _58
REMARK   24  A    between atoms: _58  and  _59
REMARK   25  A    between atoms: _62  and  _64
REMARK   26  A    between atoms: _64  and  _65
REMARK   27  A    between atoms: _64  and  _67
REMARK   28  A    between atoms: _67  and  _68
REMARK   29  A    between atoms: _78  and  _80
REMARK   30  A    between atoms: _80  and  _81
REMARK   31  A    between atoms: _80  and  _83
REMARK   32  A    between atoms: _83  and  _84
REMARK   33  A    between atoms: _84  and  _85
REMARK   34  A    between atoms: _85  and  _86
REMARK   35  A    between atoms: _86  and  _87
REMARK   36  A    between atoms: _91  and  _93
REMARK   37  A    between atoms: _93  and  _94
REMARK   38  A    between atoms: _93  and  _96
REMARK   39  A    between atoms: _96  and  _97
REMARK   40  A    between atoms: _97  and  _98
REMARK   41  A    between atoms: _98  and  _99
REMARK   42  A    between atoms: _99  and  _100
REMARK   43  A    between atoms: _104  and  _106
REMARK   44  A    between atoms: _106  and  _107
REMARK   45  A    between atoms: _106  and  _109
REMARK   46  A    between atoms: _109  and  _110
REMARK   47  A    between atoms: _110  and  _111
REMARK   48  A    between atoms: _111  and  _112
REMARK   49  A    between atoms: _121  and  _123
REMARK   50  A    between atoms: _123  and  _124
REMARK   51  A    between atoms: _123  and  _126
REMARK   52  A    between atoms: _126  and  _127
REMARK   53  A    between atoms: _130  and  _132
REMARK   54  A    between atoms: _132  and  _133
REMARK   55  A    between atoms: _132  and  _135
REMARK   56  A    between atoms: _135  and  _136
REMARK   57  A    between atoms: _141  and  _142
REMARK   58  A    between atoms: _144  and  _146
REMARK   59  A    between atoms: _146  and  _147
REMARK   60  A    between atoms: _146  and  _149
REMARK   61  A    between atoms: _149  and  _150
REMARK   62  A    between atoms: _155  and  _157
REMARK   63  A    between atoms: _157  and  _158
REMARK   64  A    between atoms: _157  and  _160
REMARK   65  A    between atoms: _160  and  _161
REMARK   66  A    between atoms: _161  and  _162
REMARK   67  A    between atoms: _164  and  _166
REMARK   68  A    between atoms: _166  and  _167
REMARK   69  A    between atoms: _166  and  _169
REMARK   70  A    between atoms: _171  and  _173
REMARK   71  A    between atoms: _173  and  _174
REMARK   72  A    between atoms: _173  and  _176
REMARK   73  A    between atoms: _176  and  _177
REMARK   74  A    between atoms: _177  and  _178
REMARK   75  A    between atoms: _178  and  _179
REMARK   76  A    between atoms: _179  and  _180
REMARK   77  A    between atoms: _184  and  _186
REMARK   78  A    between atoms: _186  and  _187
REMARK   79  A    between atoms: _186  and  _189
REMARK   80  A    between atoms: _189  and  _190
REMARK   81  A    between atoms: _193  and  _195
REMARK   82  A    between atoms: _195  and  _196
REMARK   83  A    between atoms: _195  and  _198
REMARK   84  A    between atoms: _200  and  _202
REMARK   85  A    between atoms: _202  and  _203
REMARK   86  A    between atoms: _202  and  _205
REMARK   87  A    between atoms: _205  and  _206
REMARK   88  A    between atoms: _212  and  _214
REMARK   89  A    between atoms: _214  and  _215
REMARK   90  A    between atoms: _214  and  _217
REMARK   91  A    between atoms: _217  and  _218
REMARK   92  A    between atoms: _223  and  _225
REMARK   93  A    between atoms: _225  and  _226
REMARK   94  A    between atoms: _225  and  _228
REMARK   95  A    between atoms: _228  and  _229
REMARK   96  A    between atoms: _231  and  _233
REMARK   97  A    between atoms: _233  and  _234
REMARK   98  A    between atoms: _233  and  _236
REMARK   99  A    between atoms: _236  and  _237
REMARK  100  A    between atoms: _240  and  _242
REMARK  101  A    between atoms: _242  and  _243
REMARK  102  A    between atoms: _242  and  _245
REMARK  103  A    between atoms: _245  and  _246
REMARK  104  A    between atoms: _249  and  _251
REMARK  105  A    between atoms: _251  and  _252
REMARK  106  A    between atoms: _251  and  _254
REMARK  107  A    between atoms: _254  and  _255
REMARK  108  A    between atoms: _258  and  _260
REMARK  109  A    between atoms: _260  and  _261
REMARK  110  A    between atoms: _260  and  _263
REMARK  111  A    between atoms: _263  and  _264
REMARK  112  A    between atoms: _269  and  _270
REMARK  113  A    between atoms: _272  and  _274
REMARK  114  A    between atoms: _274  and  _275
REMARK  115  A    between atoms: _274  and  _277
REMARK  116  A    between atoms: _277  and  _278
REMARK  117  A    between atoms: _283  and  _285
REMARK  118  A    between atoms: _285  and  _286
REMARK  119  A    between atoms: _288  and  _290
REMARK  120  A    between atoms: _290  and  _291
REMARK  121  A    between atoms: _290  and  _293
REMARK  122  A    between atoms: _293  and  _294
REMARK  123  A    between atoms: _299  and  _301
REMARK  124  A    between atoms: _301  and  _302
REMARK  125  A    between atoms: _301  and  _304
REMARK  126  A    between atoms: _307  and  _309
REMARK  127  A    between atoms: _309  and  _310
REMARK  128  A    between atoms: _309  and  _312
REMARK  129  A    between atoms: _312  and  _313
REMARK  130  A    between atoms: _316  and  _318
REMARK  131  A    between atoms: _318  and  _319
REMARK  132  A    between atoms: _318  and  _321
REMARK  133  A    between atoms: _321  and  _322
REMARK  134  A    between atoms: _325  and  _327
REMARK  135  A    between atoms: _327  and  _328
REMARK  136  A    between atoms: _327  and  _330
REMARK  137  A    between atoms: _330  and  _331
REMARK  138  A    between atoms: _334  and  _336
REMARK  139  A    between atoms: _336  and  _337
REMARK  140  A    between atoms: _336  and  _339
REMARK  141  A    between atoms: _339  and  _340
REMARK                            x       y       z     vdW  Elec       q    Type
REMARK                         _______ _______ _______ _____ _____    ______ ____
ROOT
ATOM      1  O   HOH     1       3.969  22.948  19.980  0.00  0.00    +0.000 OA
ENDROOT
TORSDOF 0
REMARK  Name = ../refined-set-2016/2p09/2p09_pocket.pdb
REMARK  141 active torsions:
REMARK  status: ('A' for Active; 'I' for Inactive)
REMARK    1  A    between atoms: _1  and  _3
REMARK    2  A    between atoms: _3  and  _4
REMARK    3  A    between atoms: _3  and  _6
REMARK    4  A    between atoms: _8  and  _10
REMARK    5  A    between atoms: _10  and  _11
REMARK    6  A    between atoms: _10  and  _13
REMARK    7  A    between atoms: _16  and  _18
REMARK    8  A    between atoms: _18  and  _19
REMARK    9  A    between atoms: _18  and  _21
REMARK   10  A    between atoms: _21  and  _22
REMARK   11  A    between atoms: _22  and  _23
REMARK   12  A    between atoms: _23  and  _24
REMARK   13  A    between atoms: _24  and  _25
REMARK   14  A    between atoms: _30  and  _31
REMARK   15  A    between atoms: _36  and  _38
REMARK   16  A    between atoms: _38  and  _39
REMARK   17  A    between atoms: _38  and  _41
REMARK   18  A    between atoms: _41  and  _42
REMARK   19  A    between atoms: _42  and  _43
REMARK   20  A    between atoms: _43  and  _44
REMARK   21  A    between atoms: _53  and  _55
REMARK   22  A    between atoms: _55  and  _56
REMARK   23  A    between atoms: _55  and  _58
REMARK   24  A    between atoms: _58  and  _59
REMARK   25  A    between atoms: _62  and  _64
REMARK   26  A    between atoms: _64  and  _65
REMARK   27  A    between atoms: _64  and  _67
REMARK   28  A    between atoms: _67  and  _68
REMARK   29  A    between atoms: _78  and  _80
REMARK   30  A    between atoms: _80  and  _81
REMARK   31  A    between atoms: _80  and  _83
REMARK   32  A    between atoms: _83  and  _84
REMARK   33  A    between atoms: _84  and  _85
REMARK   34  A    between atoms: _85  and  _86
REMARK   35  A    between atoms: _86  and  _87
REMARK   36  A    between atoms: _91  and  _93
REMARK   37  A    between atoms: _93  and  _94
REMARK   38  A    between atoms: _93  and  _96
REMARK   39  A    between atoms: _96  and  _97
REMARK   40  A    between atoms: _97  and  _98
REMARK   41  A    between atoms: _98  and  _99
REMARK   42  A    between atoms: _99  and  _100
REMARK   43  A    between atoms: _104  and  _106
REMARK   44  A    between atoms: _106  and  _107
REMARK   45  A    between atoms: _106  and  _109
REMARK   46  A    between atoms: _109  and  _110
REMARK   47  A    between atoms: _110  and  _111
REMARK   48  A    between atoms: _111  and  _112
REMARK   49  A    between atoms: _121  and  _123
REMARK   50  A    between atoms: _123  and  _124
REMARK   51  A    between atoms: _123  and  _126
REMARK   52  A    between atoms: _126  and  _127
REMARK   53  A    between atoms: _130  and  _132
REMARK   54  A    between atoms: _132  and  _133
REMARK   55  A    between atoms: _132  and  _135
REMARK   56  A    between atoms: _135  and  _136
REMARK   57  A    between atoms: _141  and  _142
REMARK   58  A    between atoms: _144  and  _146
REMARK   59  A    between atoms: _146  and  _147
REMARK   60  A    between atoms: _146  and  _149
REMARK   61  A    between atoms: _149  and  _150
REMARK   62  A    between atoms: _155  and  _157
REMARK   63  A    between atoms: _157  and  _158
REMARK   64  A    between atoms: _157  and  _160
REMARK   65  A    between atoms: _160  and  _161
REMARK   66  A    between atoms: _161  and  _162
REMARK   67  A    between atoms: _164  and  _166
REMARK   68  A    between atoms: _166  and  _167
REMARK   69  A    between atoms: _166  and  _169
REMARK   70  A    between atoms: _171  and  _173
REMARK   71  A    between atoms: _173  and  _174
REMARK   72  A    between atoms: _173  and  _176
REMARK   73  A    between atoms: _176  and  _177
REMARK   74  A    between atoms: _177  and  _178
REMARK   75  A    between atoms: _178  and  _179
REMARK   76  A    between atoms: _179  and  _180
REMARK   77  A    between atoms: _184  and  _186
REMARK   78  A    between atoms: _186  and  _187
REMARK   79  A    between atoms: _186  and  _189
REMARK   80  A    between atoms: _189  and  _190
REMARK   81  A    between atoms: _193  and  _195
REMARK   82  A    between atoms: _195  and  _196
REMARK   83  A    between atoms: _195  and  _198
REMARK   84  A    between atoms: _200  and  _202
REMARK   85  A    between atoms: _202  and  _203
REMARK   86  A    between atoms: _202  and  _205
REMARK   87  A    between atoms: _205  and  _206
REMARK   88  A    between atoms: _212  and  _214
REMARK   89  A    between atoms: _214  and  _215
REMARK   90  A    between atoms: _214  and  _217
REMARK   91  A    between atoms: _217  and  _218
REMARK   92  A    between atoms: _223  and  _225
REMARK   93  A    between atoms: _225  and  _226
REMARK   94  A    between atoms: _225  and  _228
REMARK   95  A    between atoms: _228  and  _229
REMARK   96  A    between atoms: _231  and  _233
REMARK   97  A    between atoms: _233  and  _234
REMARK   98  A    between atoms: _233  and  _236
REMARK   99  A    between atoms: _236  and  _237
REMARK  100  A    between atoms: _240  and  _242
REMARK  101  A    between atoms: _242  and  _243
REMARK  102  A    between atoms: _242  and  _245
REMARK  103  A    between atoms: _245  and  _246
REMARK  104  A    between atoms: _249  and  _251
REMARK  105  A    between atoms: _251  and  _252
REMARK  106  A    between atoms: _251  and  _254
REMARK  107  A    between atoms: _254  and  _255
REMARK  108  A    between atoms: _258  and  _260
REMARK  109  A    between atoms: _260  and  _261
REMARK  110  A    between atoms: _260  and  _263
REMARK  111  A    between atoms: _263  and  _264
REMARK  112  A    between atoms: _269  and  _270
REMARK  113  A    between atoms: _272  and  _274
REMARK  114  A    between atoms: _274  and  _275
REMARK  115  A    between atoms: _274  and  _277
REMARK  116  A    between atoms: _277  and  _278
REMARK  117  A    between atoms: _283  and  _285
REMARK  118  A    between atoms: _285  and  _286
REMARK  119  A    between atoms: _288  and  _290
REMARK  120  A    between atoms: _290  and  _291
REMARK  121  A    between atoms: _290  and  _293
REMARK  122  A    between atoms: _293  and  _294
REMARK  123  A    between atoms: _299  and  _301
REMARK  124  A    between atoms: _301  and  _302
REMARK  125  A    between atoms: _301  and  _304
REMARK  126  A    between atoms: _307  and  _309
REMARK  127  A    between atoms: _309  and  _310
REMARK  128  A    between atoms: _309  and  _312
REMARK  129  A    between atoms: _312  and  _313
REMARK  130  A    between atoms: _316  and  _318
REMARK  131  A    between atoms: _318  and  _319
REMARK  132  A    between atoms: _318  and  _321
REMARK  133  A    between atoms: _321  and  _322
REMARK  134  A    between atoms: _325  and  _327
REMARK  135  A    between atoms: _327  and  _328
REMARK  136  A    between atoms: _327  and  _330
REMARK  137  A    between atoms: _330  and  _331
REMARK  138  A    between atoms: _334  and  _336
REMARK  139  A    between atoms: _336  and  _337
REMARK  140  A    between atoms: _336  and  _339
REMARK  141  A    between atoms: _339  and  _340
REMARK                            x       y       z     vdW  Elec       q    Type
REMARK                         _______ _______ _______ _____ _____    ______ ____
ROOT
ATOM      1  O   HOH     1       3.701  24.300  17.237  0.00  0.00    +0.000 OA
ENDROOT
TORSDOF 0
REMARK  Name = ../refined-set-2016/2p09/2p09_pocket.pdb
REMARK  141 active torsions:
REMARK  status: ('A' for Active; 'I' for Inactive)
REMARK    1  A    between atoms: _1  and  _3
REMARK    2  A    between atoms: _3  and  _4
REMARK    3  A    between atoms: _3  and  _6
REMARK    4  A    between atoms: _8  and  _10
REMARK    5  A    between atoms: _10  and  _11
REMARK    6  A    between atoms: _10  and  _13
REMARK    7  A    between atoms: _16  and  _18
REMARK    8  A    between atoms: _18  and  _19
REMARK    9  A    between atoms: _18  and  _21
REMARK   10  A    between atoms: _21  and  _22
REMARK   11  A    between atoms: _22  and  _23
REMARK   12  A    between atoms: _23  and  _24
REMARK   13  A    between atoms: _24  and  _25
REMARK   14  A    between atoms: _30  and  _31
REMARK   15  A    between atoms: _36  and  _38
REMARK   16  A    between atoms: _38  and  _39
REMARK   17  A    between atoms: _38  and  _41
REMARK   18  A    between atoms: _41  and  _42
REMARK   19  A    between atoms: _42  and  _43
REMARK   20  A    between atoms: _43  and  _44
REMARK   21  A    between atoms: _53  and  _55
REMARK   22  A    between atoms: _55  and  _56
REMARK   23  A    between atoms: _55  and  _58
REMARK   24  A    between atoms: _58  and  _59
REMARK   25  A    between atoms: _62  and  _64
REMARK   26  A    between atoms: _64  and  _65
REMARK   27  A    between atoms: _64  and  _67
REMARK   28  A    between atoms: _67  and  _68
REMARK   29  A    between atoms: _78  and  _80
REMARK   30  A    between atoms: _80  and  _81
REMARK   31  A    between atoms: _80  and  _83
REMARK   32  A    between atoms: _83  and  _84
REMARK   33  A    between atoms: _84  and  _85
REMARK   34  A    between atoms: _85  and  _86
REMARK   35  A    between atoms: _86  and  _87
REMARK   36  A    between atoms: _91  and  _93
REMARK   37  A    between atoms: _93  and  _94
REMARK   38  A    between atoms: _93  and  _96
REMARK   39  A    between atoms: _96  and  _97
REMARK   40  A    between atoms: _97  and  _98
REMARK   41  A    between atoms: _98  and  _99
REMARK   42  A    between atoms: _99  and  _100
REMARK   43  A    between atoms: _104  and  _106
REMARK   44  A    between atoms: _106  and  _107
REMARK   45  A    between atoms: _106  and  _109
REMARK   46  A    between atoms: _109  and  _110
REMARK   47  A    between atoms: _110  and  _111
REMARK   48  A    between atoms: _111  and  _112
REMARK   49  A    between atoms: _121  and  _123
REMARK   50  A    between atoms: _123  and  _124
REMARK   51  A    between atoms: _123  and  _126
REMARK   52  A    between atoms: _126  and  _127
REMARK   53  A    between atoms: _130  and  _132
REMARK   54  A    between atoms: _132  and  _133
REMARK   55  A    between atoms: _132  and  _135
REMARK   56  A    between atoms: _135  and  _136
REMARK   57  A    between atoms: _141  and  _142
REMARK   58  A    between atoms: _144  and  _146
REMARK   59  A    between atoms: _146  and  _147
REMARK   60  A    between atoms: _146  and  _149
REMARK   61  A    between atoms: _149  and  _150
REMARK   62  A    between atoms: _155  and  _157
REMARK   63  A    between atoms: _157  and  _158
REMARK   64  A    between atoms: _157  and  _160
REMARK   65  A    between atoms: _160  and  _161
REMARK   66  A    between atoms: _161  and  _162
REMARK   67  A    between atoms: _164  and  _166
REMARK   68  A    between atoms: _166  and  _167
REMARK   69  A    between atoms: _166  and  _169
REMARK   70  A    between atoms: _171  and  _173
REMARK   71  A    between atoms: _173  and  _174
REMARK   72  A    between atoms: _173  and  _176
REMARK   73  A    between atoms: _176  and  _177
REMARK   74  A    between atoms: _177  and  _178
REMARK   75  A    between atoms: _178  and  _179
REMARK   76  A    between atoms: _179  and  _180
REMARK   77  A    between atoms: _184  and  _186
REMARK   78  A    between atoms: _186  and  _187
REMARK   79  A    between atoms: _186  and  _189
REMARK   80  A    between atoms: _189  and  _190
REMARK   81  A    between atoms: _193  and  _195
REMARK   82  A    between atoms: _195  and  _196
REMARK   83  A    between atoms: _195  and  _198
REMARK   84  A    between atoms: _200  and  _202
REMARK   85  A    between atoms: _202  and  _203
REMARK   86  A    between atoms: _202  and  _205
REMARK   87  A    between atoms: _205  and  _206
REMARK   88  A    between atoms: _212  and  _214
REMARK   89  A    between atoms: _214  and  _215
REMARK   90  A    between atoms: _214  and  _217
REMARK   91  A    between atoms: _217  and  _218
REMARK   92  A    between atoms: _223  and  _225
REMARK   93  A    between atoms: _225  and  _226
REMARK   94  A    between atoms: _225  and  _228
REMARK   95  A    between atoms: _228  and  _229
REMARK   96  A    between atoms: _231  and  _233
REMARK   97  A    between atoms: _233  and  _234
REMARK   98  A    between atoms: _233  and  _236
REMARK   99  A    between atoms: _236  and  _237
REMARK  100  A    between atoms: _240  and  _242
REMARK  101  A    between atoms: _242  and  _243
REMARK  102  A    between atoms: _242  and  _245
REMARK  103  A    between atoms: _245  and  _246
REMARK  104  A    between atoms: _249  and  _251
REMARK  105  A    between atoms: _251  and  _252
REMARK  106  A    between atoms: _251  and  _254
REMARK  107  A    between atoms: _254  and  _255
REMARK  108  A    between atoms: _258  and  _260
REMARK  109  A    between atoms: _260  and  _261
REMARK  110  A    between atoms: _260  and  _263
REMARK  111  A    between atoms: _263  and  _264
REMARK  112  A    between atoms: _269  and  _270
REMARK  113  A    between atoms: _272  and  _274
REMARK  114  A    between atoms: _274  and  _275
REMARK  115  A    between atoms: _274  and  _277
REMARK  116  A    between atoms: _277  and  _278
REMARK  117  A    between atoms: _283  and  _285
REMARK  118  A    between atoms: _285  and  _286
REMARK  119  A    between atoms: _288  and  _290
REMARK  120  A    between atoms: _290  and  _291
REMARK  121  A    between atoms: _290  and  _293
REMARK  122  A    between atoms: _293  and  _294
REMARK  123  A    between atoms: _299  and  _301
REMARK  124  A    between atoms: _301  and  _302
REMARK  125  A    between atoms: _301  and  _304
REMARK  126  A    between atoms: _307  and  _309
REMARK  127  A    between atoms: _309  and  _310
REMARK  128  A    between atoms: _309  and  _312
REMARK  129  A    between atoms: _312  and  _313
REMARK  130  A    between atoms: _316  and  _318
REMARK  131  A    between atoms: _318  and  _319
REMARK  132  A    between atoms: _318  and  _321
REMARK  133  A    between atoms: _321  and  _322
REMARK  134  A    between atoms: _325  and  _327
REMARK  135  A    between atoms: _327  and  _328
REMARK  136  A    between atoms: _327  and  _330
REMARK  137  A    between atoms: _330  and  _331
REMARK  138  A    between atoms: _334  and  _336
REMARK  139  A    between atoms: _336  and  _337
REMARK  140  A    between atoms: _336  and  _339
REMARK  141  A    between atoms: _339  and  _340
REMARK                            x       y       z     vdW  Elec       q    Type
REMARK                         _______ _______ _______ _____ _____    ______ ____
ROOT
ATOM      1  O   HOH     1       7.915  30.174  12.537  0.00  0.00    +0.000 OA
ENDROOT
TORSDOF 0
REMARK  Name = ../refined-set-2016/2p09/2p09_pocket.pdb
REMARK  141 active torsions:
REMARK  status: ('A' for Active; 'I' for Inactive)
REMARK    1  A    between atoms: _1  and  _3
REMARK    2  A    between atoms: _3  and  _4
REMARK    3  A    between atoms: _3  and  _6
REMARK    4  A    between atoms: _8  and  _10
REMARK    5  A    between atoms: _10  and  _11
REMARK    6  A    between atoms: _10  and  _13
REMARK    7  A    between atoms: _16  and  _18
REMARK    8  A    between atoms: _18  and  _19
REMARK    9  A    between atoms: _18  and  _21
REMARK   10  A    between atoms: _21  and  _22
REMARK   11  A    between atoms: _22  and  _23
REMARK   12  A    between atoms: _23  and  _24
REMARK   13  A    between atoms: _24  and  _25
REMARK   14  A    between atoms: _30  and  _31
REMARK   15  A    between atoms: _36  and  _38
REMARK   16  A    between atoms: _38  and  _39
REMARK   17  A    between atoms: _38  and  _41
REMARK   18  A    between atoms: _41  and  _42
REMARK   19  A    between atoms: _42  and  _43
REMARK   20  A    between atoms: _43  and  _44
REMARK   21  A    between atoms: _53  and  _55
REMARK   22  A    between atoms: _55  and  _56
REMARK   23  A    between atoms: _55  and  _58
REMARK   24  A    between atoms: _58  and  _59
REMARK   25  A    between atoms: _62  and  _64
REMARK   26  A    between atoms: _64  and  _65
REMARK   27  A    between atoms: _64  and  _67
REMARK   28  A    between atoms: _67  and  _68
REMARK   29  A    between atoms: _78  and  _80
REMARK   30  A    between atoms: _80  and  _81
REMARK   31  A    between atoms: _80  and  _83
REMARK   32  A    between atoms: _83  and  _84
REMARK   33  A    between atoms: _84  and  _85
REMARK   34  A    between atoms: _85  and  _86
REMARK   35  A    between atoms: _86  and  _87
REMARK   36  A    between atoms: _91  and  _93
REMARK   37  A    between atoms: _93  and  _94
REMARK   38  A    between atoms: _93  and  _96
REMARK   39  A    between atoms: _96  and  _97
REMARK   40  A    between atoms: _97  and  _98
REMARK   41  A    between atoms: _98  and  _99
REMARK   42  A    between atoms: _99  and  _100
REMARK   43  A    between atoms: _104  and  _106
REMARK   44  A    between atoms: _106  and  _107
REMARK   45  A    between atoms: _106  and  _109
REMARK   46  A    between atoms: _109  and  _110
REMARK   47  A    between atoms: _110  and  _111
REMARK   48  A    between atoms: _111  and  _112
REMARK   49  A    between atoms: _121  and  _123
REMARK   50  A    between atoms: _123  and  _124
REMARK   51  A    between atoms: _123  and  _126
REMARK   52  A    between atoms: _126  and  _127
REMARK   53  A    between atoms: _130  and  _132
REMARK   54  A    between atoms: _132  and  _133
REMARK   55  A    between atoms: _132  and  _135
REMARK   56  A    between atoms: _135  and  _136
REMARK   57  A    between atoms: _141  and  _142
REMARK   58  A    between atoms: _144  and  _146
REMARK   59  A    between atoms: _146  and  _147
REMARK   60  A    between atoms: _146  and  _149
REMARK   61  A    between atoms: _149  and  _150
REMARK   62  A    between atoms: _155  and  _157
REMARK   63  A    between atoms: _157  and  _158
REMARK   64  A    between atoms: _157  and  _160
REMARK   65  A    between atoms: _160  and  _161
REMARK   66  A    between atoms: _161  and  _162
REMARK   67  A    between atoms: _164  and  _166
REMARK   68  A    between atoms: _166  and  _167
REMARK   69  A    between atoms: _166  and  _169
REMARK   70  A    between atoms: _171  and  _173
REMARK   71  A    between atoms: _173  and  _174
REMARK   72  A    between atoms: _173  and  _176
REMARK   73  A    between atoms: _176  and  _177
REMARK   74  A    between atoms: _177  and  _178
REMARK   75  A    between atoms: _178  and  _179
REMARK   76  A    between atoms: _179  and  _180
REMARK   77  A    between atoms: _184  and  _186
REMARK   78  A    between atoms: _186  and  _187
REMARK   79  A    between atoms: _186  and  _189
REMARK   80  A    between atoms: _189  and  _190
REMARK   81  A    between atoms: _193  and  _195
REMARK   82  A    between atoms: _195  and  _196
REMARK   83  A    between atoms: _195  and  _198
REMARK   84  A    between atoms: _200  and  _202
REMARK   85  A    between atoms: _202  and  _203
REMARK   86  A    between atoms: _202  and  _205
REMARK   87  A    between atoms: _205  and  _206
REMARK   88  A    between atoms: _212  and  _214
REMARK   89  A    between atoms: _214  and  _215
REMARK   90  A    between atoms: _214  and  _217
REMARK   91  A    between atoms: _217  and  _218
REMARK   92  A    between atoms: _223  and  _225
REMARK   93  A    between atoms: _225  and  _226
REMARK   94  A    between atoms: _225  and  _228
REMARK   95  A    between atoms: _228  and  _229
REMARK   96  A    between atoms: _231  and  _233
REMARK   97  A    between atoms: _233  and  _234
REMARK   98  A    between atoms: _233  and  _236
REMARK   99  A    between atoms: _236  and  _237
REMARK  100  A    between atoms: _240  and  _242
REMARK  101  A    between atoms: _242  and  _243
REMARK  102  A    between atoms: _242  and  _245
REMARK  103  A    between atoms: _245  and  _246
REMARK  104  A    between atoms: _249  and  _251
REMARK  105  A    between atoms: _251  and  _252
REMARK  106  A    between atoms: _251  and  _254
REMARK  107  A    between atoms: _254  and  _255
REMARK  108  A    between atoms: _258  and  _260
REMARK  109  A    between atoms: _260  and  _261
REMARK  110  A    between atoms: _260  and  _263
REMARK  111  A    between atoms: _263  and  _264
REMARK  112  A    between atoms: _269  and  _270
REMARK  113  A    between atoms: _272  and  _274
REMARK  114  A    between atoms: _274  and  _275
REMARK  115  A    between atoms: _274  and  _277
REMARK  116  A    between atoms: _277  and  _278
REMARK  117  A    between atoms: _283  and  _285
REMARK  118  A    between atoms: _285  and  _286
REMARK  119  A    between atoms: _288  and  _290
REMARK  120  A    between atoms: _290  and  _291
REMARK  121  A    between atoms: _290  and  _293
REMARK  122  A    between atoms: _293  and  _294
REMARK  123  A    between atoms: _299  and  _301
REMARK  124  A    between atoms: _301  and  _302
REMARK  125  A    between atoms: _301  and  _304
REMARK  126  A    between atoms: _307  and  _309
REMARK  127  A    between atoms: _309  and  _310
REMARK  128  A    between atoms: _309  and  _312
REMARK  129  A    between atoms: _312  and  _313
REMARK  130  A    between atoms: _316  and  _318
REMARK  131  A    between atoms: _318  and  _319
REMARK  132  A    between atoms: _318  and  _321
REMARK  133  A    between atoms: _321  and  _322
REMARK  134  A    between atoms: _325  and  _327
REMARK  135  A    between atoms: _327  and  _328
REMARK  136  A    between atoms: _327  and  _330
REMARK  137  A    between atoms: _330  and  _331
REMARK  138  A    between atoms: _334  and  _336
REMARK  139  A    between atoms: _336  and  _337
REMARK  140  A    between atoms: _336  and  _339
REMARK  141  A    between atoms: _339  and  _340
REMARK                            x       y       z     vdW  Elec       q    Type
REMARK                         _______ _______ _______ _____ _____    ______ ____
ROOT
ATOM      1  O   HOH     1       6.764  25.762  15.603  0.00  0.00    +0.000 OA
ENDROOT
TORSDOF 0
