REMARK  Name = ../refined-set-2016/4yml/4yml_pocket.pdb
REMARK  203 active torsions:
REMARK  status: ('A' for Active; 'I' for Inactive)
REMARK    1  A    between atoms: _1  and  _3
REMARK    2  A    between atoms: _3  and  _4
REMARK    3  A    between atoms: _6  and  _8
REMARK    4  A    between atoms: _8  and  _9
REMARK    5  A    between atoms: _12  and  _14
REMARK    6  A    between atoms: _14  and  _15
REMARK    7  A    between atoms: _14  and  _17
REMARK    8  A    between atoms: _17  and  _18
REMARK    9  A    between atoms: _18  and  _19
REMARK   10  A    between atoms: _21  and  _23
REMARK   11  A    between atoms: _23  and  _24
REMARK   12  A    between atoms: _23  and  _26
REMARK   13  A    between atoms: _26  and  _27
REMARK   14  A    between atoms: _27  and  _28
REMARK   15  A    between atoms: _31  and  _33
REMARK   16  A    between atoms: _33  and  _34
REMARK   17  A    between atoms: _33  and  _36
REMARK   18  A    between atoms: _36  and  _37
REMARK   19  A    between atoms: _39  and  _41
REMARK   20  A    between atoms: _41  and  _42
REMARK   21  A    between atoms: _44  and  _46
REMARK   22  A    between atoms: _46  and  _47
REMARK   23  A    between atoms: _46  and  _49
REMARK   24  A    between atoms: _49  and  _50
REMARK   25  A    between atoms: _53  and  _55
REMARK   26  A    between atoms: _55  and  _56
REMARK   27  A    between atoms: _58  and  _60
REMARK   28  A    between atoms: _60  and  _61
REMARK   29  A    between atoms: _60  and  _63
REMARK   30  A    between atoms: _63  and  _64
REMARK   31  A    between atoms: _64  and  _65
REMARK   32  A    between atoms: _65  and  _66
REMARK   33  A    between atoms: _66  and  _67
REMARK   34  A    between atoms: _71  and  _73
REMARK   35  A    between atoms: _73  and  _74
REMARK   36  A    between atoms: _73  and  _76
REMARK   37  A    between atoms: _76  and  _77
REMARK   38  A    between atoms: _82  and  _84
REMARK   39  A    between atoms: _84  and  _85
REMARK   40  A    between atoms: _84  and  _87
REMARK   41  A    between atoms: _87  and  _88
REMARK   42  A    between atoms: _91  and  _93
REMARK   43  A    between atoms: _93  and  _94
REMARK   44  A    between atoms: _96  and  _98
REMARK   45  A    between atoms: _98  and  _99
REMARK   46  A    between atoms: _98  and  _101
REMARK   47  A    between atoms: _101  and  _102
REMARK   48  A    between atoms: _104  and  _106
REMARK   49  A    between atoms: _106  and  _107
REMARK   50  A    between atoms: _110  and  _112
REMARK   51  A    between atoms: _112  and  _113
REMARK   52  A    between atoms: _115  and  _117
REMARK   53  A    between atoms: _117  and  _118
REMARK   54  A    between atoms: _120  and  _122
REMARK   55  A    between atoms: _122  and  _123
REMARK   56  A    between atoms: _122  and  _125
REMARK   57  A    between atoms: _125  and  _126
REMARK   58  A    between atoms: _129  and  _131
REMARK   59  A    between atoms: _131  and  _132
REMARK   60  A    between atoms: _131  and  _134
REMARK   61  A    between atoms: _134  and  _135
REMARK   62  A    between atoms: _140  and  _142
REMARK   63  A    between atoms: _142  and  _143
REMARK   64  A    between atoms: _142  and  _145
REMARK   65  A    between atoms: _148  and  _150
REMARK   66  A    between atoms: _150  and  _151
REMARK   67  A    between atoms: _150  and  _153
REMARK   68  A    between atoms: _153  and  _154
REMARK   69  A    between atoms: _156  and  _158
REMARK   70  A    between atoms: _158  and  _159
REMARK   71  A    between atoms: _161  and  _163
REMARK   72  A    between atoms: _163  and  _164
REMARK   73  A    between atoms: _163  and  _166
REMARK   74  A    between atoms: _166  and  _167
REMARK   75  A    between atoms: _170  and  _172
REMARK   76  A    between atoms: _172  and  _173
REMARK   77  A    between atoms: _176  and  _178
REMARK   78  A    between atoms: _178  and  _179
REMARK   79  A    between atoms: _178  and  _181
REMARK   80  A    between atoms: _181  and  _182
REMARK   81  A    between atoms: _188  and  _190
REMARK   82  A    between atoms: _190  and  _191
REMARK   83  A    between atoms: _190  and  _193
REMARK   84  A    between atoms: _193  and  _194
REMARK   85  A    between atoms: _197  and  _199
REMARK   86  A    between atoms: _199  and  _200
REMARK   87  A    between atoms: _199  and  _202
REMARK   88  A    between atoms: _202  and  _203
REMARK   89  A    between atoms: _208  and  _210
REMARK   90  A    between atoms: _210  and  _211
REMARK   91  A    between atoms: _213  and  _215
REMARK   92  A    between atoms: _215  and  _216
REMARK   93  A    between atoms: _215  and  _218
REMARK   94  A    between atoms: _218  and  _219
REMARK   95  A    between atoms: _222  and  _224
REMARK   96  A    between atoms: _224  and  _225
REMARK   97  A    between atoms: _224  and  _227
REMARK   98  A    between atoms: _227  and  _228
REMARK   99  A    between atoms: _231  and  _233
REMARK  100  A    between atoms: _233  and  _234
REMARK  101  A    between atoms: _237  and  _239
REMARK  102  A    between atoms: _239  and  _240
REMARK  103  A    between atoms: _239  and  _242
REMARK  104  A    between atoms: _245  and  _247
REMARK  105  A    between atoms: _247  and  _248
REMARK  106  A    between atoms: _247  and  _250
REMARK  107  A    between atoms: _250  and  _251
REMARK  108  A    between atoms: _251  and  _252
REMARK  109  A    between atoms: _255  and  _257
REMARK  110  A    between atoms: _257  and  _258
REMARK  111  A    between atoms: _257  and  _260
REMARK  112  A    between atoms: _260  and  _261
REMARK  113  A    between atoms: _261  and  _262
REMARK  114  A    between atoms: _264  and  _266
REMARK  115  A    between atoms: _266  and  _267
REMARK  116  A    between atoms: _266  and  _269
REMARK  117  A    between atoms: _269  and  _270
REMARK  118  A    between atoms: _270  and  _271
REMARK  119  A    between atoms: _274  and  _276
REMARK  120  A    between atoms: _276  and  _277
REMARK  121  A    between atoms: _280  and  _282
REMARK  122  A    between atoms: _282  and  _283
REMARK  123  A    between atoms: _282  and  _285
REMARK  124  A    between atoms: _285  and  _286
REMARK  125  A    between atoms: _286  and  _287
REMARK  126  A    between atoms: _287  and  _288
REMARK  127  A    between atoms: _297  and  _299
REMARK  128  A    between atoms: _299  and  _300
REMARK  129  A    between atoms: _303  and  _305
REMARK  130  A    between atoms: _305  and  _306
REMARK  131  A    between atoms: _305  and  _308
REMARK  132  A    between atoms: _308  and  _309
REMARK  133  A    between atoms: _312  and  _314
REMARK  134  A    between atoms: _314  and  _315
REMARK  135  A    between atoms: _314  and  _317
REMARK  136  A    between atoms: _317  and  _318
REMARK  137  A    between atoms: _320  and  _322
REMARK  138  A    between atoms: _322  and  _323
REMARK  139  A    between atoms: _322  and  _325
REMARK  140  A    between atoms: _325  and  _326
REMARK  141  A    between atoms: _329  and  _331
REMARK  142  A    between atoms: _331  and  _332
REMARK  143  A    between atoms: _331  and  _334
REMARK  144  A    between atoms: _337  and  _339
REMARK  145  A    between atoms: _339  and  _340
REMARK  146  A    between atoms: _343  and  _345
REMARK  147  A    between atoms: _345  and  _346
REMARK  148  A    between atoms: _345  and  _348
REMARK  149  A    between atoms: _348  and  _349
REMARK  150  A    between atoms: _352  and  _354
REMARK  151  A    between atoms: _354  and  _355
REMARK  152  A    between atoms: _354  and  _357
REMARK  153  A    between atoms: _357  and  _358
REMARK  154  A    between atoms: _358  and  _359
REMARK  155  A    between atoms: _364  and  _366
REMARK  156  A    between atoms: _366  and  _367
REMARK  157  A    between atoms: _366  and  _369
REMARK  158  A    between atoms: _369  and  _370
REMARK  159  A    between atoms: _372  and  _374
REMARK  160  A    between atoms: _374  and  _375
REMARK  161  A    between atoms: _374  and  _377
REMARK  162  A    between atoms: _377  and  _378
REMARK  163  A    between atoms: _383  and  _385
REMARK  164  A    between atoms: _385  and  _386
REMARK  165  A    between atoms: _385  and  _388
REMARK  166  A    between atoms: _388  and  _389
REMARK  167  A    between atoms: _391  and  _393
REMARK  168  A    between atoms: _393  and  _394
REMARK  169  A    between atoms: _393  and  _396
REMARK  170  A    between atoms: _396  and  _397
REMARK  171  A    between atoms: _403  and  _405
REMARK  172  A    between atoms: _405  and  _406
REMARK  173  A    between atoms: _405  and  _408
REMARK  174  A    between atoms: _408  and  _409
REMARK  175  A    between atoms: _412  and  _414
REMARK  176  A    between atoms: _414  and  _415
REMARK  177  A    between atoms: _414  and  _417
REMARK  178  A    between atoms: _417  and  _418
REMARK  179  A    between atoms: _421  and  _423
REMARK  180  A    between atoms: _423  and  _424
REMARK  181  A    between atoms: _427  and  _429
REMARK  182  A    between atoms: _429  and  _430
REMARK  183  A    between atoms: _429  and  _432
REMARK  184  A    between atoms: _432  and  _433
REMARK  185  A    between atoms: _436  and  _438
REMARK  186  A    between atoms: _438  and  _439
REMARK  187  A    between atoms: _438  and  _441
REMARK  188  A    between atoms: _444  and  _446
REMARK  189  A    between atoms: _446  and  _447
REMARK  190  A    between atoms: _450  and  _452
REMARK  191  A    between atoms: _452  and  _453
REMARK  192  A    between atoms: _452  and  _455
REMARK  193  A    between atoms: _455  and  _456
REMARK  194  A    between atoms: _462  and  _464
REMARK  195  A    between atoms: _464  and  _465
REMARK  196  A    between atoms: _464  and  _467
REMARK  197  A    between atoms: _467  and  _468
REMARK  198  A    between atoms: _473  and  _474
REMARK  199  A    between atoms: _476  and  _478
REMARK  200  A    between atoms: _478  and  _479
REMARK  201  A    between atoms: _478  and  _481
REMARK  202  A    between atoms: _481  and  _482
REMARK  203  A    between atoms: _486  and  _487
REMARK                            x       y       z     vdW  Elec       q    Type
REMARK                         _______ _______ _______ _____ _____    ______ ____
ROOT
ATOM      1  C   ALA A   2     -24.859  -9.224 -26.102  0.00  0.00    +0.241 C 
ATOM      2  N   MET A   3     -23.780  -8.662 -26.639  0.00  0.00    -0.298 N 
ATOM      3  H   MET A   3     -23.036  -8.306 -26.005  0.00  0.00    +0.150 HD
ATOM      4  O   ALA A   2     -25.750  -9.765 -26.750  0.00  0.00    -0.273 OA
ENDROOT
BRANCH   1   5
ATOM      5  CA  ALA A   2     -24.985  -9.100 -24.592  0.00  0.00    +0.149 C 
ATOM      6  CB  ALA A   2     -25.347  -7.669 -24.229  0.00  0.00    +0.031 C 
BRANCH   5   9
ATOM      7  C   GLY A   1     -23.572 -10.770 -23.552  0.00  0.00    +0.240 C 
ATOM      8  O   GLY A   1     -24.317 -11.694 -23.885  0.00  0.00    -0.274 OA
ATOM      9  N   ALA A   2     -23.780  -9.503 -23.897  0.00  0.00    -0.297 N 
ATOM     10  H   ALA A   2     -23.063  -8.787 -23.663  0.00  0.00    +0.150 HD
BRANCH   7  11
ATOM     11  CA  GLY A   1     -22.347 -11.049 -22.717  0.00  0.00    +0.169 C 
BRANCH  11  12
ATOM     12  N   GLY A   1     -22.552 -12.297 -21.971  0.00  0.00    -0.236 NA
ATOM     13  H   GLY A   1     -22.901 -13.129 -22.489  0.00  0.00    +0.142 HD
ENDBRANCH  11  12
ENDBRANCH   7  11
ENDBRANCH   5   9
ENDBRANCH   1   5
BRANCH   2  14
ATOM     14  CA  MET A   3     -23.593  -8.522 -28.088  0.00  0.00    +0.138 C 
BRANCH  14  15
ATOM     15  C   MET A   3     -22.641  -9.577 -28.633  0.00  0.00    +0.227 C 
ATOM     16  O   MET A   3     -21.752 -10.044 -27.925  0.00  0.00    -0.286 OA
ENDBRANCH  14  15
BRANCH  14  17
ATOM     17  CB  MET A   3     -23.007  -7.148 -28.378  0.00  0.00    +0.039 C 
BRANCH  17  18
ATOM     18  CG  MET A   3     -23.826  -5.971 -27.863  0.00  0.00    +0.060 C 
BRANCH  18  19
ATOM     19  SD  MET A   3     -22.895  -4.414 -27.996  0.00  0.00    -0.139 S 
ATOM     20  CE  MET A   3     -22.933  -4.240 -29.771  0.00  0.00    +0.069 C 
ENDBRANCH  18  19
ENDBRANCH  17  18
ENDBRANCH  14  17
ENDBRANCH   2  14
TORSDOF 9
REMARK  Name = ../refined-set-2016/4yml/4yml_pocket.pdb
REMARK  203 active torsions:
REMARK  status: ('A' for Active; 'I' for Inactive)
REMARK    1  A    between atoms: _1  and  _3
REMARK    2  A    between atoms: _3  and  _4
REMARK    3  A    between atoms: _6  and  _8
REMARK    4  A    between atoms: _8  and  _9
REMARK    5  A    between atoms: _12  and  _14
REMARK    6  A    between atoms: _14  and  _15
REMARK    7  A    between atoms: _14  and  _17
REMARK    8  A    between atoms: _17  and  _18
REMARK    9  A    between atoms: _18  and  _19
REMARK   10  A    between atoms: _21  and  _23
REMARK   11  A    between atoms: _23  and  _24
REMARK   12  A    between atoms: _23  and  _26
REMARK   13  A    between atoms: _26  and  _27
REMARK   14  A    between atoms: _27  and  _28
REMARK   15  A    between atoms: _31  and  _33
REMARK   16  A    between atoms: _33  and  _34
REMARK   17  A    between atoms: _33  and  _36
REMARK   18  A    between atoms: _36  and  _37
REMARK   19  A    between atoms: _39  and  _41
REMARK   20  A    between atoms: _41  and  _42
REMARK   21  A    between atoms: _44  and  _46
REMARK   22  A    between atoms: _46  and  _47
REMARK   23  A    between atoms: _46  and  _49
REMARK   24  A    between atoms: _49  and  _50
REMARK   25  A    between atoms: _53  and  _55
REMARK   26  A    between atoms: _55  and  _56
REMARK   27  A    between atoms: _58  and  _60
REMARK   28  A    between atoms: _60  and  _61
REMARK   29  A    between atoms: _60  and  _63
REMARK   30  A    between atoms: _63  and  _64
REMARK   31  A    between atoms: _64  and  _65
REMARK   32  A    between atoms: _65  and  _66
REMARK   33  A    between atoms: _66  and  _67
REMARK   34  A    between atoms: _71  and  _73
REMARK   35  A    between atoms: _73  and  _74
REMARK   36  A    between atoms: _73  and  _76
REMARK   37  A    between atoms: _76  and  _77
REMARK   38  A    between atoms: _82  and  _84
REMARK   39  A    between atoms: _84  and  _85
REMARK   40  A    between atoms: _84  and  _87
REMARK   41  A    between atoms: _87  and  _88
REMARK   42  A    between atoms: _91  and  _93
REMARK   43  A    between atoms: _93  and  _94
REMARK   44  A    between atoms: _96  and  _98
REMARK   45  A    between atoms: _98  and  _99
REMARK   46  A    between atoms: _98  and  _101
REMARK   47  A    between atoms: _101  and  _102
REMARK   48  A    between atoms: _104  and  _106
REMARK   49  A    between atoms: _106  and  _107
REMARK   50  A    between atoms: _110  and  _112
REMARK   51  A    between atoms: _112  and  _113
REMARK   52  A    between atoms: _115  and  _117
REMARK   53  A    between atoms: _117  and  _118
REMARK   54  A    between atoms: _120  and  _122
REMARK   55  A    between atoms: _122  and  _123
REMARK   56  A    between atoms: _122  and  _125
REMARK   57  A    between atoms: _125  and  _126
REMARK   58  A    between atoms: _129  and  _131
REMARK   59  A    between atoms: _131  and  _132
REMARK   60  A    between atoms: _131  and  _134
REMARK   61  A    between atoms: _134  and  _135
REMARK   62  A    between atoms: _140  and  _142
REMARK   63  A    between atoms: _142  and  _143
REMARK   64  A    between atoms: _142  and  _145
REMARK   65  A    between atoms: _148  and  _150
REMARK   66  A    between atoms: _150  and  _151
REMARK   67  A    between atoms: _150  and  _153
REMARK   68  A    between atoms: _153  and  _154
REMARK   69  A    between atoms: _156  and  _158
REMARK   70  A    between atoms: _158  and  _159
REMARK   71  A    between atoms: _161  and  _163
REMARK   72  A    between atoms: _163  and  _164
REMARK   73  A    between atoms: _163  and  _166
REMARK   74  A    between atoms: _166  and  _167
REMARK   75  A    between atoms: _170  and  _172
REMARK   76  A    between atoms: _172  and  _173
REMARK   77  A    between atoms: _176  and  _178
REMARK   78  A    between atoms: _178  and  _179
REMARK   79  A    between atoms: _178  and  _181
REMARK   80  A    between atoms: _181  and  _182
REMARK   81  A    between atoms: _188  and  _190
REMARK   82  A    between atoms: _190  and  _191
REMARK   83  A    between atoms: _190  and  _193
REMARK   84  A    between atoms: _193  and  _194
REMARK   85  A    between atoms: _197  and  _199
REMARK   86  A    between atoms: _199  and  _200
REMARK   87  A    between atoms: _199  and  _202
REMARK   88  A    between atoms: _202  and  _203
REMARK   89  A    between atoms: _208  and  _210
REMARK   90  A    between atoms: _210  and  _211
REMARK   91  A    between atoms: _213  and  _215
REMARK   92  A    between atoms: _215  and  _216
REMARK   93  A    between atoms: _215  and  _218
REMARK   94  A    between atoms: _218  and  _219
REMARK   95  A    between atoms: _222  and  _224
REMARK   96  A    between atoms: _224  and  _225
REMARK   97  A    between atoms: _224  and  _227
REMARK   98  A    between atoms: _227  and  _228
REMARK   99  A    between atoms: _231  and  _233
REMARK  100  A    between atoms: _233  and  _234
REMARK  101  A    between atoms: _237  and  _239
REMARK  102  A    between atoms: _239  and  _240
REMARK  103  A    between atoms: _239  and  _242
REMARK  104  A    between atoms: _245  and  _247
REMARK  105  A    between atoms: _247  and  _248
REMARK  106  A    between atoms: _247  and  _250
REMARK  107  A    between atoms: _250  and  _251
REMARK  108  A    between atoms: _251  and  _252
REMARK  109  A    between atoms: _255  and  _257
REMARK  110  A    between atoms: _257  and  _258
REMARK  111  A    between atoms: _257  and  _260
REMARK  112  A    between atoms: _260  and  _261
REMARK  113  A    between atoms: _261  and  _262
REMARK  114  A    between atoms: _264  and  _266
REMARK  115  A    between atoms: _266  and  _267
REMARK  116  A    between atoms: _266  and  _269
REMARK  117  A    between atoms: _269  and  _270
REMARK  118  A    between atoms: _270  and  _271
REMARK  119  A    between atoms: _274  and  _276
REMARK  120  A    between atoms: _276  and  _277
REMARK  121  A    between atoms: _280  and  _282
REMARK  122  A    between atoms: _282  and  _283
REMARK  123  A    between atoms: _282  and  _285
REMARK  124  A    between atoms: _285  and  _286
REMARK  125  A    between atoms: _286  and  _287
REMARK  126  A    between atoms: _287  and  _288
REMARK  127  A    between atoms: _297  and  _299
REMARK  128  A    between atoms: _299  and  _300
REMARK  129  A    between atoms: _303  and  _305
REMARK  130  A    between atoms: _305  and  _306
REMARK  131  A    between atoms: _305  and  _308
REMARK  132  A    between atoms: _308  and  _309
REMARK  133  A    between atoms: _312  and  _314
REMARK  134  A    between atoms: _314  and  _315
REMARK  135  A    between atoms: _314  and  _317
REMARK  136  A    between atoms: _317  and  _318
REMARK  137  A    between atoms: _320  and  _322
REMARK  138  A    between atoms: _322  and  _323
REMARK  139  A    between atoms: _322  and  _325
REMARK  140  A    between atoms: _325  and  _326
REMARK  141  A    between atoms: _329  and  _331
REMARK  142  A    between atoms: _331  and  _332
REMARK  143  A    between atoms: _331  and  _334
REMARK  144  A    between atoms: _337  and  _339
REMARK  145  A    between atoms: _339  and  _340
REMARK  146  A    between atoms: _343  and  _345
REMARK  147  A    between atoms: _345  and  _346
REMARK  148  A    between atoms: _345  and  _348
REMARK  149  A    between atoms: _348  and  _349
REMARK  150  A    between atoms: _352  and  _354
REMARK  151  A    between atoms: _354  and  _355
REMARK  152  A    between atoms: _354  and  _357
REMARK  153  A    between atoms: _357  and  _358
REMARK  154  A    between atoms: _358  and  _359
REMARK  155  A    between atoms: _364  and  _366
REMARK  156  A    between atoms: _366  and  _367
REMARK  157  A    between atoms: _366  and  _369
REMARK  158  A    between atoms: _369  and  _370
REMARK  159  A    between atoms: _372  and  _374
REMARK  160  A    between atoms: _374  and  _375
REMARK  161  A    between atoms: _374  and  _377
REMARK  162  A    between atoms: _377  and  _378
REMARK  163  A    between atoms: _383  and  _385
REMARK  164  A    between atoms: _385  and  _386
REMARK  165  A    between atoms: _385  and  _388
REMARK  166  A    between atoms: _388  and  _389
REMARK  167  A    between atoms: _391  and  _393
REMARK  168  A    between atoms: _393  and  _394
REMARK  169  A    between atoms: _393  and  _396
REMARK  170  A    between atoms: _396  and  _397
REMARK  171  A    between atoms: _403  and  _405
REMARK  172  A    between atoms: _405  and  _406
REMARK  173  A    between atoms: _405  and  _408
REMARK  174  A    between atoms: _408  and  _409
REMARK  175  A    between atoms: _412  and  _414
REMARK  176  A    between atoms: _414  and  _415
REMARK  177  A    between atoms: _414  and  _417
REMARK  178  A    between atoms: _417  and  _418
REMARK  179  A    between atoms: _421  and  _423
REMARK  180  A    between atoms: _423  and  _424
REMARK  181  A    between atoms: _427  and  _429
REMARK  182  A    between atoms: _429  and  _430
REMARK  183  A    between atoms: _429  and  _432
REMARK  184  A    between atoms: _432  and  _433
REMARK  185  A    between atoms: _436  and  _438
REMARK  186  A    between atoms: _438  and  _439
REMARK  187  A    between atoms: _438  and  _441
REMARK  188  A    between atoms: _444  and  _446
REMARK  189  A    between atoms: _446  and  _447
REMARK  190  A    between atoms: _450  and  _452
REMARK  191  A    between atoms: _452  and  _453
REMARK  192  A    between atoms: _452  and  _455
REMARK  193  A    between atoms: _455  and  _456
REMARK  194  A    between atoms: _462  and  _464
REMARK  195  A    between atoms: _464  and  _465
REMARK  196  A    between atoms: _464  and  _467
REMARK  197  A    between atoms: _467  and  _468
REMARK  198  A    between atoms: _473  and  _474
REMARK  199  A    between atoms: _476  and  _478
REMARK  200  A    between atoms: _478  and  _479
REMARK  201  A    between atoms: _478  and  _481
REMARK  202  A    between atoms: _481  and  _482
REMARK  203  A    between atoms: _486  and  _487
REMARK                            x       y       z     vdW  Elec       q    Type
REMARK                         _______ _______ _______ _____ _____    ______ ____
ROOT
ATOM      1  CA  GLU A   1     -18.685  -9.152 -26.650  0.00  0.00    +0.134 C 
ENDROOT
BRANCH   1   2
ATOM      2  N   GLU A   1     -19.088  -8.937 -28.029  0.00  0.00    -0.239 NA
ATOM      3  H   GLU A   1     -20.088  -8.759 -28.255  0.00  0.00    +0.142 HD
ENDBRANCH   1   2
BRANCH   1   4
ATOM      4  C   GLU A   1     -18.463 -10.617 -26.272  0.00  0.00    +0.224 C 
ATOM      5  O   GLU A   1     -17.804 -10.883 -25.267  0.00  0.00    -0.287 OA
ENDBRANCH   1   4
BRANCH   1   6
ATOM      6  CB  GLU A   1     -19.695  -8.502 -25.704  0.00  0.00    +0.037 C 
BRANCH   6   7
ATOM      7  CG  GLU A   1     -19.724  -6.987 -25.815  0.00  0.00    +0.116 C 
BRANCH   7   8
ATOM      8  CD  GLU A   1     -20.879  -6.375 -25.051  0.00  0.00    +0.365 C 
ATOM      9  OE2 GLU A   1     -20.714  -5.297 -24.441  0.00  0.00    -0.246 OA
ATOM     10  OE1 GLU A   1     -21.972  -6.982 -25.064  0.00  0.00    -0.246 OA
ENDBRANCH   7   8
ENDBRANCH   6   7
ENDBRANCH   1   6
TORSDOF 5
REMARK  Name = ../refined-set-2016/4yml/4yml_pocket.pdb
REMARK  203 active torsions:
REMARK  status: ('A' for Active; 'I' for Inactive)
REMARK    1  A    between atoms: _1  and  _3
REMARK    2  A    between atoms: _3  and  _4
REMARK    3  A    between atoms: _6  and  _8
REMARK    4  A    between atoms: _8  and  _9
REMARK    5  A    between atoms: _12  and  _14
REMARK    6  A    between atoms: _14  and  _15
REMARK    7  A    between atoms: _14  and  _17
REMARK    8  A    between atoms: _17  and  _18
REMARK    9  A    between atoms: _18  and  _19
REMARK   10  A    between atoms: _21  and  _23
REMARK   11  A    between atoms: _23  and  _24
REMARK   12  A    between atoms: _23  and  _26
REMARK   13  A    between atoms: _26  and  _27
REMARK   14  A    between atoms: _27  and  _28
REMARK   15  A    between atoms: _31  and  _33
REMARK   16  A    between atoms: _33  and  _34
REMARK   17  A    between atoms: _33  and  _36
REMARK   18  A    between atoms: _36  and  _37
REMARK   19  A    between atoms: _39  and  _41
REMARK   20  A    between atoms: _41  and  _42
REMARK   21  A    between atoms: _44  and  _46
REMARK   22  A    between atoms: _46  and  _47
REMARK   23  A    between atoms: _46  and  _49
REMARK   24  A    between atoms: _49  and  _50
REMARK   25  A    between atoms: _53  and  _55
REMARK   26  A    between atoms: _55  and  _56
REMARK   27  A    between atoms: _58  and  _60
REMARK   28  A    between atoms: _60  and  _61
REMARK   29  A    between atoms: _60  and  _63
REMARK   30  A    between atoms: _63  and  _64
REMARK   31  A    between atoms: _64  and  _65
REMARK   32  A    between atoms: _65  and  _66
REMARK   33  A    between atoms: _66  and  _67
REMARK   34  A    between atoms: _71  and  _73
REMARK   35  A    between atoms: _73  and  _74
REMARK   36  A    between atoms: _73  and  _76
REMARK   37  A    between atoms: _76  and  _77
REMARK   38  A    between atoms: _82  and  _84
REMARK   39  A    between atoms: _84  and  _85
REMARK   40  A    between atoms: _84  and  _87
REMARK   41  A    between atoms: _87  and  _88
REMARK   42  A    between atoms: _91  and  _93
REMARK   43  A    between atoms: _93  and  _94
REMARK   44  A    between atoms: _96  and  _98
REMARK   45  A    between atoms: _98  and  _99
REMARK   46  A    between atoms: _98  and  _101
REMARK   47  A    between atoms: _101  and  _102
REMARK   48  A    between atoms: _104  and  _106
REMARK   49  A    between atoms: _106  and  _107
REMARK   50  A    between atoms: _110  and  _112
REMARK   51  A    between atoms: _112  and  _113
REMARK   52  A    between atoms: _115  and  _117
REMARK   53  A    between atoms: _117  and  _118
REMARK   54  A    between atoms: _120  and  _122
REMARK   55  A    between atoms: _122  and  _123
REMARK   56  A    between atoms: _122  and  _125
REMARK   57  A    between atoms: _125  and  _126
REMARK   58  A    between atoms: _129  and  _131
REMARK   59  A    between atoms: _131  and  _132
REMARK   60  A    between atoms: _131  and  _134
REMARK   61  A    between atoms: _134  and  _135
REMARK   62  A    between atoms: _140  and  _142
REMARK   63  A    between atoms: _142  and  _143
REMARK   64  A    between atoms: _142  and  _145
REMARK   65  A    between atoms: _148  and  _150
REMARK   66  A    between atoms: _150  and  _151
REMARK   67  A    between atoms: _150  and  _153
REMARK   68  A    between atoms: _153  and  _154
REMARK   69  A    between atoms: _156  and  _158
REMARK   70  A    between atoms: _158  and  _159
REMARK   71  A    between atoms: _161  and  _163
REMARK   72  A    between atoms: _163  and  _164
REMARK   73  A    between atoms: _163  and  _166
REMARK   74  A    between atoms: _166  and  _167
REMARK   75  A    between atoms: _170  and  _172
REMARK   76  A    between atoms: _172  and  _173
REMARK   77  A    between atoms: _176  and  _178
REMARK   78  A    between atoms: _178  and  _179
REMARK   79  A    between atoms: _178  and  _181
REMARK   80  A    between atoms: _181  and  _182
REMARK   81  A    between atoms: _188  and  _190
REMARK   82  A    between atoms: _190  and  _191
REMARK   83  A    between atoms: _190  and  _193
REMARK   84  A    between atoms: _193  and  _194
REMARK   85  A    between atoms: _197  and  _199
REMARK   86  A    between atoms: _199  and  _200
REMARK   87  A    between atoms: _199  and  _202
REMARK   88  A    between atoms: _202  and  _203
REMARK   89  A    between atoms: _208  and  _210
REMARK   90  A    between atoms: _210  and  _211
REMARK   91  A    between atoms: _213  and  _215
REMARK   92  A    between atoms: _215  and  _216
REMARK   93  A    between atoms: _215  and  _218
REMARK   94  A    between atoms: _218  and  _219
REMARK   95  A    between atoms: _222  and  _224
REMARK   96  A    between atoms: _224  and  _225
REMARK   97  A    between atoms: _224  and  _227
REMARK   98  A    between atoms: _227  and  _228
REMARK   99  A    between atoms: _231  and  _233
REMARK  100  A    between atoms: _233  and  _234
REMARK  101  A    between atoms: _237  and  _239
REMARK  102  A    between atoms: _239  and  _240
REMARK  103  A    between atoms: _239  and  _242
REMARK  104  A    between atoms: _245  and  _247
REMARK  105  A    between atoms: _247  and  _248
REMARK  106  A    between atoms: _247  and  _250
REMARK  107  A    between atoms: _250  and  _251
REMARK  108  A    between atoms: _251  and  _252
REMARK  109  A    between atoms: _255  and  _257
REMARK  110  A    between atoms: _257  and  _258
REMARK  111  A    between atoms: _257  and  _260
REMARK  112  A    between atoms: _260  and  _261
REMARK  113  A    between atoms: _261  and  _262
REMARK  114  A    between atoms: _264  and  _266
REMARK  115  A    between atoms: _266  and  _267
REMARK  116  A    between atoms: _266  and  _269
REMARK  117  A    between atoms: _269  and  _270
REMARK  118  A    between atoms: _270  and  _271
REMARK  119  A    between atoms: _274  and  _276
REMARK  120  A    between atoms: _276  and  _277
REMARK  121  A    between atoms: _280  and  _282
REMARK  122  A    between atoms: _282  and  _283
REMARK  123  A    between atoms: _282  and  _285
REMARK  124  A    between atoms: _285  and  _286
REMARK  125  A    between atoms: _286  and  _287
REMARK  126  A    between atoms: _287  and  _288
REMARK  127  A    between atoms: _297  and  _299
REMARK  128  A    between atoms: _299  and  _300
REMARK  129  A    between atoms: _303  and  _305
REMARK  130  A    between atoms: _305  and  _306
REMARK  131  A    between atoms: _305  and  _308
REMARK  132  A    between atoms: _308  and  _309
REMARK  133  A    between atoms: _312  and  _314
REMARK  134  A    between atoms: _314  and  _315
REMARK  135  A    between atoms: _314  and  _317
REMARK  136  A    between atoms: _317  and  _318
REMARK  137  A    between atoms: _320  and  _322
REMARK  138  A    between atoms: _322  and  _323
REMARK  139  A    between atoms: _322  and  _325
REMARK  140  A    between atoms: _325  and  _326
REMARK  141  A    between atoms: _329  and  _331
REMARK  142  A    between atoms: _331  and  _332
REMARK  143  A    between atoms: _331  and  _334
REMARK  144  A    between atoms: _337  and  _339
REMARK  145  A    between atoms: _339  and  _340
REMARK  146  A    between atoms: _343  and  _345
REMARK  147  A    between atoms: _345  and  _346
REMARK  148  A    between atoms: _345  and  _348
REMARK  149  A    between atoms: _348  and  _349
REMARK  150  A    between atoms: _352  and  _354
REMARK  151  A    between atoms: _354  and  _355
REMARK  152  A    between atoms: _354  and  _357
REMARK  153  A    between atoms: _357  and  _358
REMARK  154  A    between atoms: _358  and  _359
REMARK  155  A    between atoms: _364  and  _366
REMARK  156  A    between atoms: _366  and  _367
REMARK  157  A    between atoms: _366  and  _369
REMARK  158  A    between atoms: _369  and  _370
REMARK  159  A    between atoms: _372  and  _374
REMARK  160  A    between atoms: _374  and  _375
REMARK  161  A    between atoms: _374  and  _377
REMARK  162  A    between atoms: _377  and  _378
REMARK  163  A    between atoms: _383  and  _385
REMARK  164  A    between atoms: _385  and  _386
REMARK  165  A    between atoms: _385  and  _388
REMARK  166  A    between atoms: _388  and  _389
REMARK  167  A    between atoms: _391  and  _393
REMARK  168  A    between atoms: _393  and  _394
REMARK  169  A    between atoms: _393  and  _396
REMARK  170  A    between atoms: _396  and  _397
REMARK  171  A    between atoms: _403  and  _405
REMARK  172  A    between atoms: _405  and  _406
REMARK  173  A    between atoms: _405  and  _408
REMARK  174  A    between atoms: _408  and  _409
REMARK  175  A    between atoms: _412  and  _414
REMARK  176  A    between atoms: _414  and  _415
REMARK  177  A    between atoms: _414  and  _417
REMARK  178  A    between atoms: _417  and  _418
REMARK  179  A    between atoms: _421  and  _423
REMARK  180  A    between atoms: _423  and  _424
REMARK  181  A    between atoms: _427  and  _429
REMARK  182  A    between atoms: _429  and  _430
REMARK  183  A    between atoms: _429  and  _432
REMARK  184  A    between atoms: _432  and  _433
REMARK  185  A    between atoms: _436  and  _438
REMARK  186  A    between atoms: _438  and  _439
REMARK  187  A    between atoms: _438  and  _441
REMARK  188  A    between atoms: _444  and  _446
REMARK  189  A    between atoms: _446  and  _447
REMARK  190  A    between atoms: _450  and  _452
REMARK  191  A    between atoms: _452  and  _453
REMARK  192  A    between atoms: _452  and  _455
REMARK  193  A    between atoms: _455  and  _456
REMARK  194  A    between atoms: _462  and  _464
REMARK  195  A    between atoms: _464  and  _465
REMARK  196  A    between atoms: _464  and  _467
REMARK  197  A    between atoms: _467  and  _468
REMARK  198  A    between atoms: _473  and  _474
REMARK  199  A    between atoms: _476  and  _478
REMARK  200  A    between atoms: _478  and  _479
REMARK  201  A    between atoms: _478  and  _481
REMARK  202  A    between atoms: _481  and  _482
REMARK  203  A    between atoms: _486  and  _487
REMARK                            x       y       z     vdW  Elec       q    Type
REMARK                         _______ _______ _______ _____ _____    ______ ____
ROOT
ATOM      1  CA  ILE A   3     -29.308  -6.075 -25.353  0.00  0.00    +0.149 C 
ENDROOT
BRANCH   1   4
ATOM      2  C   GLY A   2     -29.011  -8.494 -25.592  0.00  0.00    +0.243 C 
ATOM      3  O   GLY A   2     -28.571  -8.613 -24.440  0.00  0.00    -0.273 OA
ATOM      4  N   ILE A   3     -29.481  -7.338 -26.068  0.00  0.00    -0.297 N 
ATOM      5  H   ILE A   3     -29.986  -7.336 -26.977  0.00  0.00    +0.150 HD
BRANCH   2   6
ATOM      6  CA  GLY A   2     -29.033  -9.665 -26.563  0.00  0.00    +0.176 C 
BRANCH   6   9
ATOM      7  C   SER A   1     -29.029 -11.691 -25.240  0.00  0.00    +0.241 C 
ATOM      8  O   SER A   1     -30.255 -11.780 -25.283  0.00  0.00    -0.274 OA
ATOM      9  N   GLY A   2     -28.365 -10.837 -25.989  0.00  0.00    -0.295 N 
ATOM     10  H   GLY A   2     -27.354 -10.995 -26.176  0.00  0.00    +0.150 HD
BRANCH   7  11
ATOM     11  CA  SER A   1     -28.209 -12.576 -24.296  0.00  0.00    +0.174 C 
BRANCH  11  12
ATOM     12  N   SER A   1     -26.838 -12.862 -24.733  0.00  0.00    -0.236 NA
ATOM     13  H   SER A   1     -26.062 -12.231 -24.446  0.00  0.00    +0.142 HD
ENDBRANCH  11  12
BRANCH  11  14
ATOM     14  CB  SER A   1     -28.185 -11.917 -22.904  0.00  0.00    +0.163 C 
BRANCH  14  15
ATOM     15  OG  SER A   1     -27.501 -10.674 -22.919  0.00  0.00    -0.380 OA
ATOM     16  H   SER A   1     -27.954 -10.057 -23.547  0.00  0.00    +0.211 HD
ENDBRANCH  14  15
ENDBRANCH  11  14
ENDBRANCH   7  11
ENDBRANCH   6   9
ENDBRANCH   2   6
ENDBRANCH   1   4
BRANCH   1  17
ATOM     17  C   ILE A   3     -30.471  -5.673 -24.442  0.00  0.00    +0.241 C 
ATOM     18  N   GLY A   4     -30.122  -5.200 -23.243  0.00  0.00    -0.295 N 
ATOM     19  H   GLY A   4     -29.122  -5.245 -22.961  0.00  0.00    +0.150 HD
ATOM     20  O   ILE A   3     -31.649  -5.787 -24.819  0.00  0.00    -0.273 OA
BRANCH  18  21
ATOM     21  CA  GLY A   4     -31.091  -4.620 -22.307  0.00  0.00    +0.176 C 
BRANCH  21  22
ATOM     22  C   GLY A   4     -31.494  -5.526 -21.169  0.00  0.00    +0.243 C 
ATOM     23  N   LYS A   5     -32.261  -4.954 -20.235  0.00  0.00    -0.298 N 
ATOM     24  H   LYS A   5     -32.625  -3.993 -20.396  0.00  0.00    +0.150 HD
ATOM     25  O   GLY A   4     -31.167  -6.709 -21.145  0.00  0.00    -0.273 OA
BRANCH  23  26
ATOM     26  CA  LYS A   5     -32.599  -5.643 -18.997  0.00  0.00    +0.137 C 
BRANCH  26  27
ATOM     27  C   LYS A   5     -33.382  -6.950 -19.185  0.00  0.00    +0.227 C 
ATOM     28  O   LYS A   5     -33.067  -7.957 -18.538  0.00  0.00    -0.286 OA
ENDBRANCH  26  27
BRANCH  26  29
ATOM     29  CB  LYS A   5     -33.343  -4.681 -18.054  0.00  0.00    +0.028 C 
BRANCH  29  30
ATOM     30  CG  LYS A   5     -32.522  -3.447 -17.660  0.00  0.00    -0.000 C 
BRANCH  30  31
ATOM     31  CD  LYS A   5     -33.349  -2.235 -17.249  0.00  0.00    -0.024 C 
BRANCH  31  32
ATOM     32  CE  LYS A   5     -34.236  -2.518 -16.065  0.00  0.00    -0.086 C 
BRANCH  32  33
ATOM     33  NZ  LYS A   5     -34.567  -1.237 -15.402  0.00  0.00    +0.380 N 
ATOM     34  HZ1 LYS A   5     -35.180  -1.421 -14.582  0.00  0.00    -0.089 HD
ATOM     35  HZ2 LYS A   5     -33.691  -0.776 -15.085  0.00  0.00    -0.089 HD
ATOM     36  HZ3 LYS A   5     -35.062  -0.618 -16.075  0.00  0.00    -0.089 HD
ENDBRANCH  32  33
ENDBRANCH  31  32
ENDBRANCH  30  31
ENDBRANCH  29  30
ENDBRANCH  26  29
ENDBRANCH  23  26
ENDBRANCH  21  22
ENDBRANCH  18  21
ENDBRANCH   1  17
BRANCH   1  37
ATOM     37  CB  ILE A   3     -29.024  -4.967 -26.384  0.00  0.00    +0.027 C 
ATOM     38  CG2 ILE A   3     -29.118  -3.576 -25.767  0.00  0.00    +0.002 C 
BRANCH  37  39
ATOM     39  CG1 ILE A   3     -27.632  -5.205 -26.990  0.00  0.00    +0.002 C 
ATOM     40  CD1 ILE A   3     -27.396  -4.388 -28.248  0.00  0.00    +0.000 C 
ENDBRANCH  37  39
ENDBRANCH   1  37
TORSDOF 19
REMARK  Name = ../refined-set-2016/4yml/4yml_pocket.pdb
REMARK  203 active torsions:
REMARK  status: ('A' for Active; 'I' for Inactive)
REMARK    1  A    between atoms: _1  and  _3
REMARK    2  A    between atoms: _3  and  _4
REMARK    3  A    between atoms: _6  and  _8
REMARK    4  A    between atoms: _8  and  _9
REMARK    5  A    between atoms: _12  and  _14
REMARK    6  A    between atoms: _14  and  _15
REMARK    7  A    between atoms: _14  and  _17
REMARK    8  A    between atoms: _17  and  _18
REMARK    9  A    between atoms: _18  and  _19
REMARK   10  A    between atoms: _21  and  _23
REMARK   11  A    between atoms: _23  and  _24
REMARK   12  A    between atoms: _23  and  _26
REMARK   13  A    between atoms: _26  and  _27
REMARK   14  A    between atoms: _27  and  _28
REMARK   15  A    between atoms: _31  and  _33
REMARK   16  A    between atoms: _33  and  _34
REMARK   17  A    between atoms: _33  and  _36
REMARK   18  A    between atoms: _36  and  _37
REMARK   19  A    between atoms: _39  and  _41
REMARK   20  A    between atoms: _41  and  _42
REMARK   21  A    between atoms: _44  and  _46
REMARK   22  A    between atoms: _46  and  _47
REMARK   23  A    between atoms: _46  and  _49
REMARK   24  A    between atoms: _49  and  _50
REMARK   25  A    between atoms: _53  and  _55
REMARK   26  A    between atoms: _55  and  _56
REMARK   27  A    between atoms: _58  and  _60
REMARK   28  A    between atoms: _60  and  _61
REMARK   29  A    between atoms: _60  and  _63
REMARK   30  A    between atoms: _63  and  _64
REMARK   31  A    between atoms: _64  and  _65
REMARK   32  A    between atoms: _65  and  _66
REMARK   33  A    between atoms: _66  and  _67
REMARK   34  A    between atoms: _71  and  _73
REMARK   35  A    between atoms: _73  and  _74
REMARK   36  A    between atoms: _73  and  _76
REMARK   37  A    between atoms: _76  and  _77
REMARK   38  A    between atoms: _82  and  _84
REMARK   39  A    between atoms: _84  and  _85
REMARK   40  A    between atoms: _84  and  _87
REMARK   41  A    between atoms: _87  and  _88
REMARK   42  A    between atoms: _91  and  _93
REMARK   43  A    between atoms: _93  and  _94
REMARK   44  A    between atoms: _96  and  _98
REMARK   45  A    between atoms: _98  and  _99
REMARK   46  A    between atoms: _98  and  _101
REMARK   47  A    between atoms: _101  and  _102
REMARK   48  A    between atoms: _104  and  _106
REMARK   49  A    between atoms: _106  and  _107
REMARK   50  A    between atoms: _110  and  _112
REMARK   51  A    between atoms: _112  and  _113
REMARK   52  A    between atoms: _115  and  _117
REMARK   53  A    between atoms: _117  and  _118
REMARK   54  A    between atoms: _120  and  _122
REMARK   55  A    between atoms: _122  and  _123
REMARK   56  A    between atoms: _122  and  _125
REMARK   57  A    between atoms: _125  and  _126
REMARK   58  A    between atoms: _129  and  _131
REMARK   59  A    between atoms: _131  and  _132
REMARK   60  A    between atoms: _131  and  _134
REMARK   61  A    between atoms: _134  and  _135
REMARK   62  A    between atoms: _140  and  _142
REMARK   63  A    between atoms: _142  and  _143
REMARK   64  A    between atoms: _142  and  _145
REMARK   65  A    between atoms: _148  and  _150
REMARK   66  A    between atoms: _150  and  _151
REMARK   67  A    between atoms: _150  and  _153
REMARK   68  A    between atoms: _153  and  _154
REMARK   69  A    between atoms: _156  and  _158
REMARK   70  A    between atoms: _158  and  _159
REMARK   71  A    between atoms: _161  and  _163
REMARK   72  A    between atoms: _163  and  _164
REMARK   73  A    between atoms: _163  and  _166
REMARK   74  A    between atoms: _166  and  _167
REMARK   75  A    between atoms: _170  and  _172
REMARK   76  A    between atoms: _172  and  _173
REMARK   77  A    between atoms: _176  and  _178
REMARK   78  A    between atoms: _178  and  _179
REMARK   79  A    between atoms: _178  and  _181
REMARK   80  A    between atoms: _181  and  _182
REMARK   81  A    between atoms: _188  and  _190
REMARK   82  A    between atoms: _190  and  _191
REMARK   83  A    between atoms: _190  and  _193
REMARK   84  A    between atoms: _193  and  _194
REMARK   85  A    between atoms: _197  and  _199
REMARK   86  A    between atoms: _199  and  _200
REMARK   87  A    between atoms: _199  and  _202
REMARK   88  A    between atoms: _202  and  _203
REMARK   89  A    between atoms: _208  and  _210
REMARK   90  A    between atoms: _210  and  _211
REMARK   91  A    between atoms: _213  and  _215
REMARK   92  A    between atoms: _215  and  _216
REMARK   93  A    between atoms: _215  and  _218
REMARK   94  A    between atoms: _218  and  _219
REMARK   95  A    between atoms: _222  and  _224
REMARK   96  A    between atoms: _224  and  _225
REMARK   97  A    between atoms: _224  and  _227
REMARK   98  A    between atoms: _227  and  _228
REMARK   99  A    between atoms: _231  and  _233
REMARK  100  A    between atoms: _233  and  _234
REMARK  101  A    between atoms: _237  and  _239
REMARK  102  A    between atoms: _239  and  _240
REMARK  103  A    between atoms: _239  and  _242
REMARK  104  A    between atoms: _245  and  _247
REMARK  105  A    between atoms: _247  and  _248
REMARK  106  A    between atoms: _247  and  _250
REMARK  107  A    between atoms: _250  and  _251
REMARK  108  A    between atoms: _251  and  _252
REMARK  109  A    between atoms: _255  and  _257
REMARK  110  A    between atoms: _257  and  _258
REMARK  111  A    between atoms: _257  and  _260
REMARK  112  A    between atoms: _260  and  _261
REMARK  113  A    between atoms: _261  and  _262
REMARK  114  A    between atoms: _264  and  _266
REMARK  115  A    between atoms: _266  and  _267
REMARK  116  A    between atoms: _266  and  _269
REMARK  117  A    between atoms: _269  and  _270
REMARK  118  A    between atoms: _270  and  _271
REMARK  119  A    between atoms: _274  and  _276
REMARK  120  A    between atoms: _276  and  _277
REMARK  121  A    between atoms: _280  and  _282
REMARK  122  A    between atoms: _282  and  _283
REMARK  123  A    between atoms: _282  and  _285
REMARK  124  A    between atoms: _285  and  _286
REMARK  125  A    between atoms: _286  and  _287
REMARK  126  A    between atoms: _287  and  _288
REMARK  127  A    between atoms: _297  and  _299
REMARK  128  A    between atoms: _299  and  _300
REMARK  129  A    between atoms: _303  and  _305
REMARK  130  A    between atoms: _305  and  _306
REMARK  131  A    between atoms: _305  and  _308
REMARK  132  A    between atoms: _308  and  _309
REMARK  133  A    between atoms: _312  and  _314
REMARK  134  A    between atoms: _314  and  _315
REMARK  135  A    between atoms: _314  and  _317
REMARK  136  A    between atoms: _317  and  _318
REMARK  137  A    between atoms: _320  and  _322
REMARK  138  A    between atoms: _322  and  _323
REMARK  139  A    between atoms: _322  and  _325
REMARK  140  A    between atoms: _325  and  _326
REMARK  141  A    between atoms: _329  and  _331
REMARK  142  A    between atoms: _331  and  _332
REMARK  143  A    between atoms: _331  and  _334
REMARK  144  A    between atoms: _337  and  _339
REMARK  145  A    between atoms: _339  and  _340
REMARK  146  A    between atoms: _343  and  _345
REMARK  147  A    between atoms: _345  and  _346
REMARK  148  A    between atoms: _345  and  _348
REMARK  149  A    between atoms: _348  and  _349
REMARK  150  A    between atoms: _352  and  _354
REMARK  151  A    between atoms: _354  and  _355
REMARK  152  A    between atoms: _354  and  _357
REMARK  153  A    between atoms: _357  and  _358
REMARK  154  A    between atoms: _358  and  _359
REMARK  155  A    between atoms: _364  and  _366
REMARK  156  A    between atoms: _366  and  _367
REMARK  157  A    between atoms: _366  and  _369
REMARK  158  A    between atoms: _369  and  _370
REMARK  159  A    between atoms: _372  and  _374
REMARK  160  A    between atoms: _374  and  _375
REMARK  161  A    between atoms: _374  and  _377
REMARK  162  A    between atoms: _377  and  _378
REMARK  163  A    between atoms: _383  and  _385
REMARK  164  A    between atoms: _385  and  _386
REMARK  165  A    between atoms: _385  and  _388
REMARK  166  A    between atoms: _388  and  _389
REMARK  167  A    between atoms: _391  and  _393
REMARK  168  A    between atoms: _393  and  _394
REMARK  169  A    between atoms: _393  and  _396
REMARK  170  A    between atoms: _396  and  _397
REMARK  171  A    between atoms: _403  and  _405
REMARK  172  A    between atoms: _405  and  _406
REMARK  173  A    between atoms: _405  and  _408
REMARK  174  A    between atoms: _408  and  _409
REMARK  175  A    between atoms: _412  and  _414
REMARK  176  A    between atoms: _414  and  _415
REMARK  177  A    between atoms: _414  and  _417
REMARK  178  A    between atoms: _417  and  _418
REMARK  179  A    between atoms: _421  and  _423
REMARK  180  A    between atoms: _423  and  _424
REMARK  181  A    between atoms: _427  and  _429
REMARK  182  A    between atoms: _429  and  _430
REMARK  183  A    between atoms: _429  and  _432
REMARK  184  A    between atoms: _432  and  _433
REMARK  185  A    between atoms: _436  and  _438
REMARK  186  A    between atoms: _438  and  _439
REMARK  187  A    between atoms: _438  and  _441
REMARK  188  A    between atoms: _444  and  _446
REMARK  189  A    between atoms: _446  and  _447
REMARK  190  A    between atoms: _450  and  _452
REMARK  191  A    between atoms: _452  and  _453
REMARK  192  A    between atoms: _452  and  _455
REMARK  193  A    between atoms: _455  and  _456
REMARK  194  A    between atoms: _462  and  _464
REMARK  195  A    between atoms: _464  and  _465
REMARK  196  A    between atoms: _464  and  _467
REMARK  197  A    between atoms: _467  and  _468
REMARK  198  A    between atoms: _473  and  _474
REMARK  199  A    between atoms: _476  and  _478
REMARK  200  A    between atoms: _478  and  _479
REMARK  201  A    between atoms: _478  and  _481
REMARK  202  A    between atoms: _481  and  _482
REMARK  203  A    between atoms: _486  and  _487
REMARK                            x       y       z     vdW  Elec       q    Type
REMARK                         _______ _______ _______ _____ _____    ______ ____
ROOT
ATOM      1  CA  SER A   4     -18.300  -3.082 -22.663  0.00  0.00    +0.178 C 
ENDROOT
BRANCH   1   4
ATOM      2  C   GLY A   3     -17.990  -5.411 -21.977  0.00  0.00    +0.243 C 
ATOM      3  O   GLY A   3     -17.034  -5.157 -21.228  0.00  0.00    -0.273 OA
ATOM      4  N   SER A   4     -18.649  -4.495 -22.682  0.00  0.00    -0.295 N 
ATOM      5  H   SER A   4     -19.448  -4.802 -23.272  0.00  0.00    +0.150 HD
BRANCH   2   6
ATOM      6  CA  GLY A   3     -18.494  -6.815 -22.170  0.00  0.00    +0.176 C 
BRANCH   6   9
ATOM      7  C   THR A   2     -18.993  -8.517 -20.556  0.00  0.00    +0.243 C 
ATOM      8  O   THR A   2     -20.193  -8.532 -20.868  0.00  0.00    -0.273 OA
ATOM      9  N   GLY A   3     -18.115  -7.697 -21.103  0.00  0.00    -0.295 N 
ATOM     10  H   GLY A   3     -17.135  -7.690 -20.756  0.00  0.00    +0.150 HD
BRANCH   7  11
ATOM     11  CA  THR A   2     -18.444  -9.444 -19.486  0.00  0.00    +0.176 C 
BRANCH  11  14
ATOM     12  C   ASN A   1     -19.734  -9.835 -17.437  0.00  0.00    +0.239 C 
ATOM     13  O   ASN A   1     -19.073  -9.026 -16.772  0.00  0.00    -0.274 OA
ATOM     14  N   THR A   2     -19.526 -10.049 -18.734  0.00  0.00    -0.295 N 
ATOM     15  H   THR A   2     -20.176 -10.686 -19.237  0.00  0.00    +0.150 HD
BRANCH  12  16
ATOM     16  CA  ASN A   1     -20.855 -10.660 -16.798  0.00  0.00    +0.154 C 
BRANCH  16  17
ATOM     17  N   ASN A   1     -20.283 -11.510 -15.736  0.00  0.00    -0.238 NA
ATOM     18  H   ASN A   1     -20.093 -11.086 -14.805  0.00  0.00    +0.142 HD
ENDBRANCH  16  17
BRANCH  16  19
ATOM     19  CB  ASN A   1     -21.971  -9.779 -16.220  0.00  0.00    +0.111 C 
BRANCH  19  20
ATOM     20  CG  ASN A   1     -22.560  -8.810 -17.245  0.00  0.00    +0.221 C 
ATOM     21  OD1 ASN A   1     -22.797  -7.643 -16.935  0.00  0.00    -0.275 OA
ATOM     22  ND2 ASN A   1     -22.793  -9.293 -18.472  0.00  0.00    -0.329 N 
ATOM     23 HD21 ASN A   1     -22.577 -10.287 -18.689  0.00  0.00    +0.145 HD
ATOM     24 HD22 ASN A   1     -23.190  -8.674 -19.208  0.00  0.00    +0.145 HD
ENDBRANCH  19  20
ENDBRANCH  16  19
ENDBRANCH  12  16
ENDBRANCH  11  14
BRANCH  11  25
ATOM     25  CB  THR A   2     -17.524 -10.532 -20.107  0.00  0.00    +0.137 C 
ATOM     26  CG2 THR A   2     -18.250 -11.416 -21.079  0.00  0.00    +0.034 C 
BRANCH  25  27
ATOM     27  OG1 THR A   2     -16.428  -9.923 -20.796  0.00  0.00    -0.382 OA
ATOM     28  HG1 THR A   2     -15.901  -9.379 -20.159  0.00  0.00    +0.210 HD
ENDBRANCH  25  27
ENDBRANCH  11  25
ENDBRANCH   7  11
ENDBRANCH   6   9
ENDBRANCH   2   6
ENDBRANCH   1   4
BRANCH   1  29
ATOM     29  C   SER A   4     -19.120  -2.284 -21.665  0.00  0.00    +0.243 C 
ATOM     30  O   SER A   4     -20.181  -2.731 -21.210  0.00  0.00    -0.273 OA
ATOM     31  N   ALA A   5     -18.640  -1.086 -21.351  0.00  0.00    -0.297 N 
ATOM     32  H   ALA A   5     -17.722  -0.793 -21.742  0.00  0.00    +0.150 HD
BRANCH  31  33
ATOM     33  CA  ALA A   5     -19.355  -0.176 -20.482  0.00  0.00    +0.149 C 
ATOM     34  CB  ALA A   5     -19.100  -0.513 -19.002  0.00  0.00    +0.031 C 
BRANCH  33  35
ATOM     35  C   ALA A   5     -18.969   1.264 -20.784  0.00  0.00    +0.241 C 
ATOM     36  N   GLY A   6     -19.851   2.182 -20.401  0.00  0.00    -0.295 N 
ATOM     37  H   GLY A   6     -20.782   1.869 -20.058  0.00  0.00    +0.150 HD
ATOM     38  O   ALA A   5     -17.895   1.530 -21.353  0.00  0.00    -0.273 OA
BRANCH  36  39
ATOM     39  CA  GLY A   6     -19.565   3.603 -20.443  0.00  0.00    +0.176 C 
BRANCH  39  40
ATOM     40  C   GLY A   6     -18.892   4.009 -19.150  0.00  0.00    +0.243 C 
ATOM     41  O   GLY A   6     -19.443   3.809 -18.067  0.00  0.00    -0.273 OA
ATOM     42  N   GLY A   7     -17.699   4.591 -19.254  0.00  0.00    -0.295 N 
ATOM     43  H   GLY A   7     -17.309   4.780 -20.200  0.00  0.00    +0.150 HD
BRANCH  42  44
ATOM     44  CA  GLY A   7     -16.926   4.970 -18.082  0.00  0.00    +0.176 C 
BRANCH  44  45
ATOM     45  C   GLY A   7     -17.411   6.270 -17.463  0.00  0.00    +0.243 C 
ATOM     46  N   LEU A   8     -17.573   6.269 -16.142  0.00  0.00    -0.298 N 
ATOM     47  H   LEU A   8     -17.357   5.402 -15.610  0.00  0.00    +0.150 HD
ATOM     48  O   GLY A   7     -17.670   7.239 -18.168  0.00  0.00    -0.273 OA
BRANCH  46  49
ATOM     49  CA  LEU A   8     -18.048   7.455 -15.406  0.00  0.00    +0.137 C 
BRANCH  49  50
ATOM     50  C   LEU A   8     -17.002   7.982 -14.443  0.00  0.00    +0.227 C 
ATOM     51  O   LEU A   8     -16.963   9.182 -14.192  0.00  0.00    -0.286 OA
ENDBRANCH  49  50
BRANCH  49  52
ATOM     52  CB  LEU A   8     -19.328   7.155 -14.625  0.00  0.00    +0.028 C 
BRANCH  52  53
ATOM     53  CG  LEU A   8     -20.555   6.745 -15.446  0.00  0.00    +0.002 C 
ATOM     54  CD2 LEU A   8     -21.696   6.421 -14.498  0.00  0.00    +0.000 C 
ATOM     55  CD1 LEU A   8     -20.973   7.826 -16.432  0.00  0.00    +0.000 C 
ENDBRANCH  52  53
ENDBRANCH  49  52
ENDBRANCH  46  49
ENDBRANCH  44  45
ENDBRANCH  42  44
ENDBRANCH  39  40
ENDBRANCH  36  39
ENDBRANCH  33  35
ENDBRANCH  31  33
ENDBRANCH   1  29
BRANCH   1  56
ATOM     56  CB  SER A   4     -18.494  -2.500 -24.061  0.00  0.00    +0.166 C 
BRANCH  56  57
ATOM     57  OG  SER A   4     -19.835  -2.660 -24.515  0.00  0.00    -0.380 OA
ATOM     58  H   SER A   4     -20.060  -3.624 -24.543  0.00  0.00    +0.211 HD
ENDBRANCH  56  57
ENDBRANCH   1  56
TORSDOF 24
REMARK  Name = ../refined-set-2016/4yml/4yml_pocket.pdb
REMARK  203 active torsions:
REMARK  status: ('A' for Active; 'I' for Inactive)
REMARK    1  A    between atoms: _1  and  _3
REMARK    2  A    between atoms: _3  and  _4
REMARK    3  A    between atoms: _6  and  _8
REMARK    4  A    between atoms: _8  and  _9
REMARK    5  A    between atoms: _12  and  _14
REMARK    6  A    between atoms: _14  and  _15
REMARK    7  A    between atoms: _14  and  _17
REMARK    8  A    between atoms: _17  and  _18
REMARK    9  A    between atoms: _18  and  _19
REMARK   10  A    between atoms: _21  and  _23
REMARK   11  A    between atoms: _23  and  _24
REMARK   12  A    between atoms: _23  and  _26
REMARK   13  A    between atoms: _26  and  _27
REMARK   14  A    between atoms: _27  and  _28
REMARK   15  A    between atoms: _31  and  _33
REMARK   16  A    between atoms: _33  and  _34
REMARK   17  A    between atoms: _33  and  _36
REMARK   18  A    between atoms: _36  and  _37
REMARK   19  A    between atoms: _39  and  _41
REMARK   20  A    between atoms: _41  and  _42
REMARK   21  A    between atoms: _44  and  _46
REMARK   22  A    between atoms: _46  and  _47
REMARK   23  A    between atoms: _46  and  _49
REMARK   24  A    between atoms: _49  and  _50
REMARK   25  A    between atoms: _53  and  _55
REMARK   26  A    between atoms: _55  and  _56
REMARK   27  A    between atoms: _58  and  _60
REMARK   28  A    between atoms: _60  and  _61
REMARK   29  A    between atoms: _60  and  _63
REMARK   30  A    between atoms: _63  and  _64
REMARK   31  A    between atoms: _64  and  _65
REMARK   32  A    between atoms: _65  and  _66
REMARK   33  A    between atoms: _66  and  _67
REMARK   34  A    between atoms: _71  and  _73
REMARK   35  A    between atoms: _73  and  _74
REMARK   36  A    between atoms: _73  and  _76
REMARK   37  A    between atoms: _76  and  _77
REMARK   38  A    between atoms: _82  and  _84
REMARK   39  A    between atoms: _84  and  _85
REMARK   40  A    between atoms: _84  and  _87
REMARK   41  A    between atoms: _87  and  _88
REMARK   42  A    between atoms: _91  and  _93
REMARK   43  A    between atoms: _93  and  _94
REMARK   44  A    between atoms: _96  and  _98
REMARK   45  A    between atoms: _98  and  _99
REMARK   46  A    between atoms: _98  and  _101
REMARK   47  A    between atoms: _101  and  _102
REMARK   48  A    between atoms: _104  and  _106
REMARK   49  A    between atoms: _106  and  _107
REMARK   50  A    between atoms: _110  and  _112
REMARK   51  A    between atoms: _112  and  _113
REMARK   52  A    between atoms: _115  and  _117
REMARK   53  A    between atoms: _117  and  _118
REMARK   54  A    between atoms: _120  and  _122
REMARK   55  A    between atoms: _122  and  _123
REMARK   56  A    between atoms: _122  and  _125
REMARK   57  A    between atoms: _125  and  _126
REMARK   58  A    between atoms: _129  and  _131
REMARK   59  A    between atoms: _131  and  _132
REMARK   60  A    between atoms: _131  and  _134
REMARK   61  A    between atoms: _134  and  _135
REMARK   62  A    between atoms: _140  and  _142
REMARK   63  A    between atoms: _142  and  _143
REMARK   64  A    between atoms: _142  and  _145
REMARK   65  A    between atoms: _148  and  _150
REMARK   66  A    between atoms: _150  and  _151
REMARK   67  A    between atoms: _150  and  _153
REMARK   68  A    between atoms: _153  and  _154
REMARK   69  A    between atoms: _156  and  _158
REMARK   70  A    between atoms: _158  and  _159
REMARK   71  A    between atoms: _161  and  _163
REMARK   72  A    between atoms: _163  and  _164
REMARK   73  A    between atoms: _163  and  _166
REMARK   74  A    between atoms: _166  and  _167
REMARK   75  A    between atoms: _170  and  _172
REMARK   76  A    between atoms: _172  and  _173
REMARK   77  A    between atoms: _176  and  _178
REMARK   78  A    between atoms: _178  and  _179
REMARK   79  A    between atoms: _178  and  _181
REMARK   80  A    between atoms: _181  and  _182
REMARK   81  A    between atoms: _188  and  _190
REMARK   82  A    between atoms: _190  and  _191
REMARK   83  A    between atoms: _190  and  _193
REMARK   84  A    between atoms: _193  and  _194
REMARK   85  A    between atoms: _197  and  _199
REMARK   86  A    between atoms: _199  and  _200
REMARK   87  A    between atoms: _199  and  _202
REMARK   88  A    between atoms: _202  and  _203
REMARK   89  A    between atoms: _208  and  _210
REMARK   90  A    between atoms: _210  and  _211
REMARK   91  A    between atoms: _213  and  _215
REMARK   92  A    between atoms: _215  and  _216
REMARK   93  A    between atoms: _215  and  _218
REMARK   94  A    between atoms: _218  and  _219
REMARK   95  A    between atoms: _222  and  _224
REMARK   96  A    between atoms: _224  and  _225
REMARK   97  A    between atoms: _224  and  _227
REMARK   98  A    between atoms: _227  and  _228
REMARK   99  A    between atoms: _231  and  _233
REMARK  100  A    between atoms: _233  and  _234
REMARK  101  A    between atoms: _237  and  _239
REMARK  102  A    between atoms: _239  and  _240
REMARK  103  A    between atoms: _239  and  _242
REMARK  104  A    between atoms: _245  and  _247
REMARK  105  A    between atoms: _247  and  _248
REMARK  106  A    between atoms: _247  and  _250
REMARK  107  A    between atoms: _250  and  _251
REMARK  108  A    between atoms: _251  and  _252
REMARK  109  A    between atoms: _255  and  _257
REMARK  110  A    between atoms: _257  and  _258
REMARK  111  A    between atoms: _257  and  _260
REMARK  112  A    between atoms: _260  and  _261
REMARK  113  A    between atoms: _261  and  _262
REMARK  114  A    between atoms: _264  and  _266
REMARK  115  A    between atoms: _266  and  _267
REMARK  116  A    between atoms: _266  and  _269
REMARK  117  A    between atoms: _269  and  _270
REMARK  118  A    between atoms: _270  and  _271
REMARK  119  A    between atoms: _274  and  _276
REMARK  120  A    between atoms: _276  and  _277
REMARK  121  A    between atoms: _280  and  _282
REMARK  122  A    between atoms: _282  and  _283
REMARK  123  A    between atoms: _282  and  _285
REMARK  124  A    between atoms: _285  and  _286
REMARK  125  A    between atoms: _286  and  _287
REMARK  126  A    between atoms: _287  and  _288
REMARK  127  A    between atoms: _297  and  _299
REMARK  128  A    between atoms: _299  and  _300
REMARK  129  A    between atoms: _303  and  _305
REMARK  130  A    between atoms: _305  and  _306
REMARK  131  A    between atoms: _305  and  _308
REMARK  132  A    between atoms: _308  and  _309
REMARK  133  A    between atoms: _312  and  _314
REMARK  134  A    between atoms: _314  and  _315
REMARK  135  A    between atoms: _314  and  _317
REMARK  136  A    between atoms: _317  and  _318
REMARK  137  A    between atoms: _320  and  _322
REMARK  138  A    between atoms: _322  and  _323
REMARK  139  A    between atoms: _322  and  _325
REMARK  140  A    between atoms: _325  and  _326
REMARK  141  A    between atoms: _329  and  _331
REMARK  142  A    between atoms: _331  and  _332
REMARK  143  A    between atoms: _331  and  _334
REMARK  144  A    between atoms: _337  and  _339
REMARK  145  A    between atoms: _339  and  _340
REMARK  146  A    between atoms: _343  and  _345
REMARK  147  A    between atoms: _345  and  _346
REMARK  148  A    between atoms: _345  and  _348
REMARK  149  A    between atoms: _348  and  _349
REMARK  150  A    between atoms: _352  and  _354
REMARK  151  A    between atoms: _354  and  _355
REMARK  152  A    between atoms: _354  and  _357
REMARK  153  A    between atoms: _357  and  _358
REMARK  154  A    between atoms: _358  and  _359
REMARK  155  A    between atoms: _364  and  _366
REMARK  156  A    between atoms: _366  and  _367
REMARK  157  A    between atoms: _366  and  _369
REMARK  158  A    between atoms: _369  and  _370
REMARK  159  A    between atoms: _372  and  _374
REMARK  160  A    between atoms: _374  and  _375
REMARK  161  A    between atoms: _374  and  _377
REMARK  162  A    between atoms: _377  and  _378
REMARK  163  A    between atoms: _383  and  _385
REMARK  164  A    between atoms: _385  and  _386
REMARK  165  A    between atoms: _385  and  _388
REMARK  166  A    between atoms: _388  and  _389
REMARK  167  A    between atoms: _391  and  _393
REMARK  168  A    between atoms: _393  and  _394
REMARK  169  A    between atoms: _393  and  _396
REMARK  170  A    between atoms: _396  and  _397
REMARK  171  A    between atoms: _403  and  _405
REMARK  172  A    between atoms: _405  and  _406
REMARK  173  A    between atoms: _405  and  _408
REMARK  174  A    between atoms: _408  and  _409
REMARK  175  A    between atoms: _412  and  _414
REMARK  176  A    between atoms: _414  and  _415
REMARK  177  A    between atoms: _414  and  _417
REMARK  178  A    between atoms: _417  and  _418
REMARK  179  A    between atoms: _421  and  _423
REMARK  180  A    between atoms: _423  and  _424
REMARK  181  A    between atoms: _427  and  _429
REMARK  182  A    between atoms: _429  and  _430
REMARK  183  A    between atoms: _429  and  _432
REMARK  184  A    between atoms: _432  and  _433
REMARK  185  A    between atoms: _436  and  _438
REMARK  186  A    between atoms: _438  and  _439
REMARK  187  A    between atoms: _438  and  _441
REMARK  188  A    between atoms: _444  and  _446
REMARK  189  A    between atoms: _446  and  _447
REMARK  190  A    between atoms: _450  and  _452
REMARK  191  A    between atoms: _452  and  _453
REMARK  192  A    between atoms: _452  and  _455
REMARK  193  A    between atoms: _455  and  _456
REMARK  194  A    between atoms: _462  and  _464
REMARK  195  A    between atoms: _464  and  _465
REMARK  196  A    between atoms: _464  and  _467
REMARK  197  A    between atoms: _467  and  _468
REMARK  198  A    between atoms: _473  and  _474
REMARK  199  A    between atoms: _476  and  _478
REMARK  200  A    between atoms: _478  and  _479
REMARK  201  A    between atoms: _478  and  _481
REMARK  202  A    between atoms: _481  and  _482
REMARK  203  A    between atoms: _486  and  _487
REMARK                            x       y       z     vdW  Elec       q    Type
REMARK                         _______ _______ _______ _____ _____    ______ ____
ROOT
ATOM      1  CB  HIS A   1     -29.186   4.547 -13.296  0.00  0.00    +0.072 C 
ENDROOT
BRANCH   1   2
ATOM      2  CG  HIS A   1     -29.256   4.396 -14.778  0.00  0.00    +0.082 A 
ATOM      3  ND1 HIS A   1     -30.137   5.108 -15.550  0.00  0.00    -0.227 NA
ATOM      4  CE1 HIS A   1     -29.953   4.795 -16.823  0.00  0.00    +0.199 A 
ATOM      5  NE2 HIS A   1     -28.963   3.920 -16.900  0.00  0.00    -0.221 NA
ATOM      6  CD2 HIS A   1     -28.496   3.673 -15.638  0.00  0.00    +0.115 A 
ENDBRANCH   1   2
BRANCH   1   7
ATOM      7  CA  HIS A   1     -30.350   3.932 -12.528  0.00  0.00    +0.139 C 
BRANCH   7   8
ATOM      8  N   HIS A   1     -30.280   2.481 -12.529  0.00  0.00    -0.239 NA
ATOM      9  H   HIS A   1     -29.864   1.973 -13.335  0.00  0.00    +0.142 HD
ENDBRANCH   7   8
BRANCH   7  10
ATOM     10  C   HIS A   1     -31.700   4.508 -12.954  0.00  0.00    +0.224 C 
ATOM     11  O   HIS A   1     -31.959   5.686 -12.704  0.00  0.00    -0.287 OA
ENDBRANCH   7  10
ENDBRANCH   1   7
TORSDOF 4
REMARK  Name = ../refined-set-2016/4yml/4yml_pocket.pdb
REMARK  203 active torsions:
REMARK  status: ('A' for Active; 'I' for Inactive)
REMARK    1  A    between atoms: _1  and  _3
REMARK    2  A    between atoms: _3  and  _4
REMARK    3  A    between atoms: _6  and  _8
REMARK    4  A    between atoms: _8  and  _9
REMARK    5  A    between atoms: _12  and  _14
REMARK    6  A    between atoms: _14  and  _15
REMARK    7  A    between atoms: _14  and  _17
REMARK    8  A    between atoms: _17  and  _18
REMARK    9  A    between atoms: _18  and  _19
REMARK   10  A    between atoms: _21  and  _23
REMARK   11  A    between atoms: _23  and  _24
REMARK   12  A    between atoms: _23  and  _26
REMARK   13  A    between atoms: _26  and  _27
REMARK   14  A    between atoms: _27  and  _28
REMARK   15  A    between atoms: _31  and  _33
REMARK   16  A    between atoms: _33  and  _34
REMARK   17  A    between atoms: _33  and  _36
REMARK   18  A    between atoms: _36  and  _37
REMARK   19  A    between atoms: _39  and  _41
REMARK   20  A    between atoms: _41  and  _42
REMARK   21  A    between atoms: _44  and  _46
REMARK   22  A    between atoms: _46  and  _47
REMARK   23  A    between atoms: _46  and  _49
REMARK   24  A    between atoms: _49  and  _50
REMARK   25  A    between atoms: _53  and  _55
REMARK   26  A    between atoms: _55  and  _56
REMARK   27  A    between atoms: _58  and  _60
REMARK   28  A    between atoms: _60  and  _61
REMARK   29  A    between atoms: _60  and  _63
REMARK   30  A    between atoms: _63  and  _64
REMARK   31  A    between atoms: _64  and  _65
REMARK   32  A    between atoms: _65  and  _66
REMARK   33  A    between atoms: _66  and  _67
REMARK   34  A    between atoms: _71  and  _73
REMARK   35  A    between atoms: _73  and  _74
REMARK   36  A    between atoms: _73  and  _76
REMARK   37  A    between atoms: _76  and  _77
REMARK   38  A    between atoms: _82  and  _84
REMARK   39  A    between atoms: _84  and  _85
REMARK   40  A    between atoms: _84  and  _87
REMARK   41  A    between atoms: _87  and  _88
REMARK   42  A    between atoms: _91  and  _93
REMARK   43  A    between atoms: _93  and  _94
REMARK   44  A    between atoms: _96  and  _98
REMARK   45  A    between atoms: _98  and  _99
REMARK   46  A    between atoms: _98  and  _101
REMARK   47  A    between atoms: _101  and  _102
REMARK   48  A    between atoms: _104  and  _106
REMARK   49  A    between atoms: _106  and  _107
REMARK   50  A    between atoms: _110  and  _112
REMARK   51  A    between atoms: _112  and  _113
REMARK   52  A    between atoms: _115  and  _117
REMARK   53  A    between atoms: _117  and  _118
REMARK   54  A    between atoms: _120  and  _122
REMARK   55  A    between atoms: _122  and  _123
REMARK   56  A    between atoms: _122  and  _125
REMARK   57  A    between atoms: _125  and  _126
REMARK   58  A    between atoms: _129  and  _131
REMARK   59  A    between atoms: _131  and  _132
REMARK   60  A    between atoms: _131  and  _134
REMARK   61  A    between atoms: _134  and  _135
REMARK   62  A    between atoms: _140  and  _142
REMARK   63  A    between atoms: _142  and  _143
REMARK   64  A    between atoms: _142  and  _145
REMARK   65  A    between atoms: _148  and  _150
REMARK   66  A    between atoms: _150  and  _151
REMARK   67  A    between atoms: _150  and  _153
REMARK   68  A    between atoms: _153  and  _154
REMARK   69  A    between atoms: _156  and  _158
REMARK   70  A    between atoms: _158  and  _159
REMARK   71  A    between atoms: _161  and  _163
REMARK   72  A    between atoms: _163  and  _164
REMARK   73  A    between atoms: _163  and  _166
REMARK   74  A    between atoms: _166  and  _167
REMARK   75  A    between atoms: _170  and  _172
REMARK   76  A    between atoms: _172  and  _173
REMARK   77  A    between atoms: _176  and  _178
REMARK   78  A    between atoms: _178  and  _179
REMARK   79  A    between atoms: _178  and  _181
REMARK   80  A    between atoms: _181  and  _182
REMARK   81  A    between atoms: _188  and  _190
REMARK   82  A    between atoms: _190  and  _191
REMARK   83  A    between atoms: _190  and  _193
REMARK   84  A    between atoms: _193  and  _194
REMARK   85  A    between atoms: _197  and  _199
REMARK   86  A    between atoms: _199  and  _200
REMARK   87  A    between atoms: _199  and  _202
REMARK   88  A    between atoms: _202  and  _203
REMARK   89  A    between atoms: _208  and  _210
REMARK   90  A    between atoms: _210  and  _211
REMARK   91  A    between atoms: _213  and  _215
REMARK   92  A    between atoms: _215  and  _216
REMARK   93  A    between atoms: _215  and  _218
REMARK   94  A    between atoms: _218  and  _219
REMARK   95  A    between atoms: _222  and  _224
REMARK   96  A    between atoms: _224  and  _225
REMARK   97  A    between atoms: _224  and  _227
REMARK   98  A    between atoms: _227  and  _228
REMARK   99  A    between atoms: _231  and  _233
REMARK  100  A    between atoms: _233  and  _234
REMARK  101  A    between atoms: _237  and  _239
REMARK  102  A    between atoms: _239  and  _240
REMARK  103  A    between atoms: _239  and  _242
REMARK  104  A    between atoms: _245  and  _247
REMARK  105  A    between atoms: _247  and  _248
REMARK  106  A    between atoms: _247  and  _250
REMARK  107  A    between atoms: _250  and  _251
REMARK  108  A    between atoms: _251  and  _252
REMARK  109  A    between atoms: _255  and  _257
REMARK  110  A    between atoms: _257  and  _258
REMARK  111  A    between atoms: _257  and  _260
REMARK  112  A    between atoms: _260  and  _261
REMARK  113  A    between atoms: _261  and  _262
REMARK  114  A    between atoms: _264  and  _266
REMARK  115  A    between atoms: _266  and  _267
REMARK  116  A    between atoms: _266  and  _269
REMARK  117  A    between atoms: _269  and  _270
REMARK  118  A    between atoms: _270  and  _271
REMARK  119  A    between atoms: _274  and  _276
REMARK  120  A    between atoms: _276  and  _277
REMARK  121  A    between atoms: _280  and  _282
REMARK  122  A    between atoms: _282  and  _283
REMARK  123  A    between atoms: _282  and  _285
REMARK  124  A    between atoms: _285  and  _286
REMARK  125  A    between atoms: _286  and  _287
REMARK  126  A    between atoms: _287  and  _288
REMARK  127  A    between atoms: _297  and  _299
REMARK  128  A    between atoms: _299  and  _300
REMARK  129  A    between atoms: _303  and  _305
REMARK  130  A    between atoms: _305  and  _306
REMARK  131  A    between atoms: _305  and  _308
REMARK  132  A    between atoms: _308  and  _309
REMARK  133  A    between atoms: _312  and  _314
REMARK  134  A    between atoms: _314  and  _315
REMARK  135  A    between atoms: _314  and  _317
REMARK  136  A    between atoms: _317  and  _318
REMARK  137  A    between atoms: _320  and  _322
REMARK  138  A    between atoms: _322  and  _323
REMARK  139  A    between atoms: _322  and  _325
REMARK  140  A    between atoms: _325  and  _326
REMARK  141  A    between atoms: _329  and  _331
REMARK  142  A    between atoms: _331  and  _332
REMARK  143  A    between atoms: _331  and  _334
REMARK  144  A    between atoms: _337  and  _339
REMARK  145  A    between atoms: _339  and  _340
REMARK  146  A    between atoms: _343  and  _345
REMARK  147  A    between atoms: _345  and  _346
REMARK  148  A    between atoms: _345  and  _348
REMARK  149  A    between atoms: _348  and  _349
REMARK  150  A    between atoms: _352  and  _354
REMARK  151  A    between atoms: _354  and  _355
REMARK  152  A    between atoms: _354  and  _357
REMARK  153  A    between atoms: _357  and  _358
REMARK  154  A    between atoms: _358  and  _359
REMARK  155  A    between atoms: _364  and  _366
REMARK  156  A    between atoms: _366  and  _367
REMARK  157  A    between atoms: _366  and  _369
REMARK  158  A    between atoms: _369  and  _370
REMARK  159  A    between atoms: _372  and  _374
REMARK  160  A    between atoms: _374  and  _375
REMARK  161  A    between atoms: _374  and  _377
REMARK  162  A    between atoms: _377  and  _378
REMARK  163  A    between atoms: _383  and  _385
REMARK  164  A    between atoms: _385  and  _386
REMARK  165  A    between atoms: _385  and  _388
REMARK  166  A    between atoms: _388  and  _389
REMARK  167  A    between atoms: _391  and  _393
REMARK  168  A    between atoms: _393  and  _394
REMARK  169  A    between atoms: _393  and  _396
REMARK  170  A    between atoms: _396  and  _397
REMARK  171  A    between atoms: _403  and  _405
REMARK  172  A    between atoms: _405  and  _406
REMARK  173  A    between atoms: _405  and  _408
REMARK  174  A    between atoms: _408  and  _409
REMARK  175  A    between atoms: _412  and  _414
REMARK  176  A    between atoms: _414  and  _415
REMARK  177  A    between atoms: _414  and  _417
REMARK  178  A    between atoms: _417  and  _418
REMARK  179  A    between atoms: _421  and  _423
REMARK  180  A    between atoms: _423  and  _424
REMARK  181  A    between atoms: _427  and  _429
REMARK  182  A    between atoms: _429  and  _430
REMARK  183  A    between atoms: _429  and  _432
REMARK  184  A    between atoms: _432  and  _433
REMARK  185  A    between atoms: _436  and  _438
REMARK  186  A    between atoms: _438  and  _439
REMARK  187  A    between atoms: _438  and  _441
REMARK  188  A    between atoms: _444  and  _446
REMARK  189  A    between atoms: _446  and  _447
REMARK  190  A    between atoms: _450  and  _452
REMARK  191  A    between atoms: _452  and  _453
REMARK  192  A    between atoms: _452  and  _455
REMARK  193  A    between atoms: _455  and  _456
REMARK  194  A    between atoms: _462  and  _464
REMARK  195  A    between atoms: _464  and  _465
REMARK  196  A    between atoms: _464  and  _467
REMARK  197  A    between atoms: _467  and  _468
REMARK  198  A    between atoms: _473  and  _474
REMARK  199  A    between atoms: _476  and  _478
REMARK  200  A    between atoms: _478  and  _479
REMARK  201  A    between atoms: _478  and  _481
REMARK  202  A    between atoms: _481  and  _482
REMARK  203  A    between atoms: _486  and  _487
REMARK                            x       y       z     vdW  Elec       q    Type
REMARK                         _______ _______ _______ _____ _____    ______ ____
ROOT
ATOM      1  C   ALA A   5     -29.239   3.517 -22.613  0.00  0.00    +0.241 C 
ATOM      2  O   ALA A   5     -28.438   3.126 -21.769  0.00  0.00    -0.273 OA
ATOM      3  N   PHE A   6     -28.879   3.959 -23.810  0.00  0.00    -0.297 N 
ATOM      4  H   PHE A   6     -29.613   4.143 -24.524  0.00  0.00    +0.150 HD
ENDROOT
BRANCH   1   5
ATOM      5  CA  ALA A   5     -30.724   3.494 -22.325  0.00  0.00    +0.149 C 
ATOM      6  CB  ALA A   5     -31.127   4.762 -21.611  0.00  0.00    +0.031 C 
BRANCH   5   8
ATOM      7  C   ASP A   4     -32.145   1.609 -21.741  0.00  0.00    +0.241 C 
ATOM      8  N   ALA A   5     -31.052   2.325 -21.514  0.00  0.00    -0.297 N 
ATOM      9  H   ALA A   5     -30.414   2.048 -20.741  0.00  0.00    +0.150 HD
ATOM     10  O   ASP A   4     -32.904   1.876 -22.640  0.00  0.00    -0.273 OA
BRANCH   7  11
ATOM     11  CA  ASP A   4     -32.418   0.394 -20.838  0.00  0.00    +0.160 C 
BRANCH  11  13
ATOM     12  C   GLY A   3     -30.994   0.482 -18.897  0.00  0.00    +0.243 C 
ATOM     13  N   ASP A   4     -32.189   0.699 -19.434  0.00  0.00    -0.296 N 
ATOM     14  H   ASP A   4     -32.959   1.086 -18.852  0.00  0.00    +0.150 HD
ATOM     15  O   GLY A   3     -30.066   0.026 -19.551  0.00  0.00    -0.273 OA
BRANCH  12  16
ATOM     16  CA  GLY A   3     -30.794   0.871 -17.444  0.00  0.00    +0.176 C 
BRANCH  16  19
ATOM     17  C   SER A   2     -29.131   0.346 -15.740  0.00  0.00    +0.243 C 
ATOM     18  O   SER A   2     -29.861   0.666 -14.783  0.00  0.00    -0.273 OA
ATOM     19  N   GLY A   3     -29.480   0.462 -17.009  0.00  0.00    -0.295 N 
ATOM     20  H   GLY A   3     -28.768   0.246 -17.735  0.00  0.00    +0.150 HD
BRANCH  17  21
ATOM     21  CA  SER A   2     -27.751  -0.245 -15.535  0.00  0.00    +0.178 C 
BRANCH  21  23
ATOM     22  C   VAL A   1     -25.955   0.741 -14.200  0.00  0.00    +0.238 C 
ATOM     23  N   SER A   2     -27.178   0.224 -14.287  0.00  0.00    -0.295 N 
ATOM     24  H   SER A   2     -27.749   0.153 -13.421  0.00  0.00    +0.150 HD
ATOM     25  O   VAL A   1     -25.190   0.853 -15.152  0.00  0.00    -0.274 OA
BRANCH  22  26
ATOM     26  CA  VAL A   1     -25.513   1.160 -12.814  0.00  0.00    +0.145 C 
BRANCH  26  27
ATOM     27  CB  VAL A   1     -25.919   2.618 -12.514  0.00  0.00    +0.025 C 
ATOM     28  CG2 VAL A   1     -25.632   2.933 -11.059  0.00  0.00    +0.002 C 
ATOM     29  CG1 VAL A   1     -25.226   3.630 -13.430  0.00  0.00    +0.002 C 
ENDBRANCH  26  27
BRANCH  26  30
ATOM     30  N   VAL A   1     -24.077   0.933 -12.687  0.00  0.00    -0.238 NA
ATOM     31  H   VAL A   1     -23.418   1.493 -13.265  0.00  0.00    +0.142 HD
ENDBRANCH  26  30
ENDBRANCH  22  26
ENDBRANCH  21  23
BRANCH  21  32
ATOM     32  CB  SER A   2     -27.901  -1.766 -15.586  0.00  0.00    +0.166 C 
BRANCH  32  33
ATOM     33  OG  SER A   2     -26.804  -2.465 -15.035  0.00  0.00    -0.380 OA
ATOM     34  H   SER A   2     -25.982  -2.233 -15.535  0.00  0.00    +0.211 HD
ENDBRANCH  32  33
ENDBRANCH  21  32
ENDBRANCH  17  21
ENDBRANCH  16  19
ENDBRANCH  12  16
ENDBRANCH  11  13
BRANCH  11  35
ATOM     35  CB  ASP A   4     -33.851  -0.119 -21.051  0.00  0.00    +0.143 C 
BRANCH  35  36
ATOM     36  CG  ASP A   4     -33.991  -1.607 -20.811  0.00  0.00    +0.367 C 
ATOM     37  OD2 ASP A   4     -35.147  -2.082 -20.602  0.00  0.00    -0.246 OA
ATOM     38  OD1 ASP A   4     -32.966  -2.311 -20.890  0.00  0.00    -0.246 OA
ENDBRANCH  35  36
ENDBRANCH  11  35
ENDBRANCH   7  11
ENDBRANCH   5   8
ENDBRANCH   1   5
BRANCH   3  39
ATOM     39  CA  PHE A   6     -27.494   4.191 -24.148  0.00  0.00    +0.153 C 
BRANCH  39  40
ATOM     40  C   PHE A   6     -27.215   5.644 -23.794  0.00  0.00    +0.241 C 
ATOM     41  N   ILE A   7     -26.263   5.857 -22.893  0.00  0.00    -0.297 N 
ATOM     42  H   ILE A   7     -25.668   5.064 -22.578  0.00  0.00    +0.150 HD
ATOM     43  O   PHE A   6     -27.873   6.551 -24.312  0.00  0.00    -0.273 OA
BRANCH  41  44
ATOM     44  CA  ILE A   7     -26.041   7.184 -22.341  0.00  0.00    +0.149 C 
BRANCH  44  45
ATOM     45  C   ILE A   7     -25.097   7.979 -23.251  0.00  0.00    +0.241 C 
ATOM     46  N   ASN A   8     -25.535   9.185 -23.601  0.00  0.00    -0.297 N 
ATOM     47  H   ASN A   8     -26.336   9.600 -23.084  0.00  0.00    +0.150 HD
ATOM     48  O   ILE A   7     -24.012   7.500 -23.621  0.00  0.00    -0.273 OA
BRANCH  46  49
ATOM     49  CA  ASN A   8     -24.924   9.948 -24.693  0.00  0.00    +0.158 C 
BRANCH  49  50
ATOM     50  C   ASN A   8     -24.878  11.439 -24.335  0.00  0.00    +0.241 C 
ATOM     51  N   GLY A   9     -24.316  11.718 -23.169  0.00  0.00    -0.296 N 
ATOM     52  H   GLY A   9     -23.903  10.936 -22.622  0.00  0.00    +0.150 HD
ATOM     53  O   ASN A   8     -25.360  12.295 -25.065  0.00  0.00    -0.273 OA
BRANCH  51  54
ATOM     54  CA  GLY A   9     -24.245  13.054 -22.614  0.00  0.00    +0.163 C 
BRANCH  54  55
ATOM     55  C   GLY A   9     -25.606  13.658 -22.295  0.00  0.00    +0.229 C 
ATOM     56  O   GLY A   9     -26.578  12.964 -21.966  0.00  0.00    -0.286 OA
ENDBRANCH  54  55
ENDBRANCH  51  54
ENDBRANCH  49  50
BRANCH  49  57
ATOM     57  CB  ASN A   8     -25.727   9.640 -25.978  0.00  0.00    +0.114 C 
BRANCH  57  58
ATOM     58  CG  ASN A   8     -25.125  10.240 -27.246  0.00  0.00    +0.222 C 
ATOM     59  ND2 ASN A   8     -23.810  10.202 -27.347  0.00  0.00    -0.329 N 
ATOM     60 HD21 ASN A   8     -23.242   9.784 -26.583  0.00  0.00    +0.145 HD
ATOM     61 HD22 ASN A   8     -23.342  10.590 -28.191  0.00  0.00    +0.145 HD
ATOM     62  OD1 ASN A   8     -25.852  10.727 -28.127  0.00  0.00    -0.275 OA
ENDBRANCH  57  58
ENDBRANCH  49  57
ENDBRANCH  46  49
ENDBRANCH  44  45
BRANCH  44  63
ATOM     63  CB  ILE A   7     -25.484   7.103 -20.917  0.00  0.00    +0.027 C 
ATOM     64  CG2 ILE A   7     -25.376   8.484 -20.301  0.00  0.00    +0.002 C 
BRANCH  63  65
ATOM     65  CG1 ILE A   7     -26.399   6.226 -20.054  0.00  0.00    +0.002 C 
ATOM     66  CD1 ILE A   7     -27.865   6.561 -20.143  0.00  0.00    +0.000 C 
ENDBRANCH  63  65
ENDBRANCH  44  63
ENDBRANCH  41  44
ENDBRANCH  39  40
BRANCH  39  67
ATOM     67  CB  PHE A   6     -27.195   3.882 -25.625  0.00  0.00    +0.055 C 
BRANCH  67  68
ATOM     68  CG  PHE A   6     -25.759   4.088 -25.971  0.00  0.00    -0.020 A 
ATOM     69  CD2 PHE A   6     -24.815   3.103 -25.710  0.00  0.00    -0.004 A 
ATOM     70  CE2 PHE A   6     -23.462   3.325 -25.965  0.00  0.00    -0.000 A 
ATOM     71  CZ  PHE A   6     -23.071   4.548 -26.482  0.00  0.00    -0.000 A 
ATOM     72  CE1 PHE A   6     -24.002   5.544 -26.709  0.00  0.00    -0.000 A 
ATOM     73  CD1 PHE A   6     -25.342   5.310 -26.457  0.00  0.00    -0.004 A 
ENDBRANCH  67  68
ENDBRANCH  39  67
ENDBRANCH   3  39
TORSDOF 29
REMARK  Name = ../refined-set-2016/4yml/4yml_pocket.pdb
REMARK  203 active torsions:
REMARK  status: ('A' for Active; 'I' for Inactive)
REMARK    1  A    between atoms: _1  and  _3
REMARK    2  A    between atoms: _3  and  _4
REMARK    3  A    between atoms: _6  and  _8
REMARK    4  A    between atoms: _8  and  _9
REMARK    5  A    between atoms: _12  and  _14
REMARK    6  A    between atoms: _14  and  _15
REMARK    7  A    between atoms: _14  and  _17
REMARK    8  A    between atoms: _17  and  _18
REMARK    9  A    between atoms: _18  and  _19
REMARK   10  A    between atoms: _21  and  _23
REMARK   11  A    between atoms: _23  and  _24
REMARK   12  A    between atoms: _23  and  _26
REMARK   13  A    between atoms: _26  and  _27
REMARK   14  A    between atoms: _27  and  _28
REMARK   15  A    between atoms: _31  and  _33
REMARK   16  A    between atoms: _33  and  _34
REMARK   17  A    between atoms: _33  and  _36
REMARK   18  A    between atoms: _36  and  _37
REMARK   19  A    between atoms: _39  and  _41
REMARK   20  A    between atoms: _41  and  _42
REMARK   21  A    between atoms: _44  and  _46
REMARK   22  A    between atoms: _46  and  _47
REMARK   23  A    between atoms: _46  and  _49
REMARK   24  A    between atoms: _49  and  _50
REMARK   25  A    between atoms: _53  and  _55
REMARK   26  A    between atoms: _55  and  _56
REMARK   27  A    between atoms: _58  and  _60
REMARK   28  A    between atoms: _60  and  _61
REMARK   29  A    between atoms: _60  and  _63
REMARK   30  A    between atoms: _63  and  _64
REMARK   31  A    between atoms: _64  and  _65
REMARK   32  A    between atoms: _65  and  _66
REMARK   33  A    between atoms: _66  and  _67
REMARK   34  A    between atoms: _71  and  _73
REMARK   35  A    between atoms: _73  and  _74
REMARK   36  A    between atoms: _73  and  _76
REMARK   37  A    between atoms: _76  and  _77
REMARK   38  A    between atoms: _82  and  _84
REMARK   39  A    between atoms: _84  and  _85
REMARK   40  A    between atoms: _84  and  _87
REMARK   41  A    between atoms: _87  and  _88
REMARK   42  A    between atoms: _91  and  _93
REMARK   43  A    between atoms: _93  and  _94
REMARK   44  A    between atoms: _96  and  _98
REMARK   45  A    between atoms: _98  and  _99
REMARK   46  A    between atoms: _98  and  _101
REMARK   47  A    between atoms: _101  and  _102
REMARK   48  A    between atoms: _104  and  _106
REMARK   49  A    between atoms: _106  and  _107
REMARK   50  A    between atoms: _110  and  _112
REMARK   51  A    between atoms: _112  and  _113
REMARK   52  A    between atoms: _115  and  _117
REMARK   53  A    between atoms: _117  and  _118
REMARK   54  A    between atoms: _120  and  _122
REMARK   55  A    between atoms: _122  and  _123
REMARK   56  A    between atoms: _122  and  _125
REMARK   57  A    between atoms: _125  and  _126
REMARK   58  A    between atoms: _129  and  _131
REMARK   59  A    between atoms: _131  and  _132
REMARK   60  A    between atoms: _131  and  _134
REMARK   61  A    between atoms: _134  and  _135
REMARK   62  A    between atoms: _140  and  _142
REMARK   63  A    between atoms: _142  and  _143
REMARK   64  A    between atoms: _142  and  _145
REMARK   65  A    between atoms: _148  and  _150
REMARK   66  A    between atoms: _150  and  _151
REMARK   67  A    between atoms: _150  and  _153
REMARK   68  A    between atoms: _153  and  _154
REMARK   69  A    between atoms: _156  and  _158
REMARK   70  A    between atoms: _158  and  _159
REMARK   71  A    between atoms: _161  and  _163
REMARK   72  A    between atoms: _163  and  _164
REMARK   73  A    between atoms: _163  and  _166
REMARK   74  A    between atoms: _166  and  _167
REMARK   75  A    between atoms: _170  and  _172
REMARK   76  A    between atoms: _172  and  _173
REMARK   77  A    between atoms: _176  and  _178
REMARK   78  A    between atoms: _178  and  _179
REMARK   79  A    between atoms: _178  and  _181
REMARK   80  A    between atoms: _181  and  _182
REMARK   81  A    between atoms: _188  and  _190
REMARK   82  A    between atoms: _190  and  _191
REMARK   83  A    between atoms: _190  and  _193
REMARK   84  A    between atoms: _193  and  _194
REMARK   85  A    between atoms: _197  and  _199
REMARK   86  A    between atoms: _199  and  _200
REMARK   87  A    between atoms: _199  and  _202
REMARK   88  A    between atoms: _202  and  _203
REMARK   89  A    between atoms: _208  and  _210
REMARK   90  A    between atoms: _210  and  _211
REMARK   91  A    between atoms: _213  and  _215
REMARK   92  A    between atoms: _215  and  _216
REMARK   93  A    between atoms: _215  and  _218
REMARK   94  A    between atoms: _218  and  _219
REMARK   95  A    between atoms: _222  and  _224
REMARK   96  A    between atoms: _224  and  _225
REMARK   97  A    between atoms: _224  and  _227
REMARK   98  A    between atoms: _227  and  _228
REMARK   99  A    between atoms: _231  and  _233
REMARK  100  A    between atoms: _233  and  _234
REMARK  101  A    between atoms: _237  and  _239
REMARK  102  A    between atoms: _239  and  _240
REMARK  103  A    between atoms: _239  and  _242
REMARK  104  A    between atoms: _245  and  _247
REMARK  105  A    between atoms: _247  and  _248
REMARK  106  A    between atoms: _247  and  _250
REMARK  107  A    between atoms: _250  and  _251
REMARK  108  A    between atoms: _251  and  _252
REMARK  109  A    between atoms: _255  and  _257
REMARK  110  A    between atoms: _257  and  _258
REMARK  111  A    between atoms: _257  and  _260
REMARK  112  A    between atoms: _260  and  _261
REMARK  113  A    between atoms: _261  and  _262
REMARK  114  A    between atoms: _264  and  _266
REMARK  115  A    between atoms: _266  and  _267
REMARK  116  A    between atoms: _266  and  _269
REMARK  117  A    between atoms: _269  and  _270
REMARK  118  A    between atoms: _270  and  _271
REMARK  119  A    between atoms: _274  and  _276
REMARK  120  A    between atoms: _276  and  _277
REMARK  121  A    between atoms: _280  and  _282
REMARK  122  A    between atoms: _282  and  _283
REMARK  123  A    between atoms: _282  and  _285
REMARK  124  A    between atoms: _285  and  _286
REMARK  125  A    between atoms: _286  and  _287
REMARK  126  A    between atoms: _287  and  _288
REMARK  127  A    between atoms: _297  and  _299
REMARK  128  A    between atoms: _299  and  _300
REMARK  129  A    between atoms: _303  and  _305
REMARK  130  A    between atoms: _305  and  _306
REMARK  131  A    between atoms: _305  and  _308
REMARK  132  A    between atoms: _308  and  _309
REMARK  133  A    between atoms: _312  and  _314
REMARK  134  A    between atoms: _314  and  _315
REMARK  135  A    between atoms: _314  and  _317
REMARK  136  A    between atoms: _317  and  _318
REMARK  137  A    between atoms: _320  and  _322
REMARK  138  A    between atoms: _322  and  _323
REMARK  139  A    between atoms: _322  and  _325
REMARK  140  A    between atoms: _325  and  _326
REMARK  141  A    between atoms: _329  and  _331
REMARK  142  A    between atoms: _331  and  _332
REMARK  143  A    between atoms: _331  and  _334
REMARK  144  A    between atoms: _337  and  _339
REMARK  145  A    between atoms: _339  and  _340
REMARK  146  A    between atoms: _343  and  _345
REMARK  147  A    between atoms: _345  and  _346
REMARK  148  A    between atoms: _345  and  _348
REMARK  149  A    between atoms: _348  and  _349
REMARK  150  A    between atoms: _352  and  _354
REMARK  151  A    between atoms: _354  and  _355
REMARK  152  A    between atoms: _354  and  _357
REMARK  153  A    between atoms: _357  and  _358
REMARK  154  A    between atoms: _358  and  _359
REMARK  155  A    between atoms: _364  and  _366
REMARK  156  A    between atoms: _366  and  _367
REMARK  157  A    between atoms: _366  and  _369
REMARK  158  A    between atoms: _369  and  _370
REMARK  159  A    between atoms: _372  and  _374
REMARK  160  A    between atoms: _374  and  _375
REMARK  161  A    between atoms: _374  and  _377
REMARK  162  A    between atoms: _377  and  _378
REMARK  163  A    between atoms: _383  and  _385
REMARK  164  A    between atoms: _385  and  _386
REMARK  165  A    between atoms: _385  and  _388
REMARK  166  A    between atoms: _388  and  _389
REMARK  167  A    between atoms: _391  and  _393
REMARK  168  A    between atoms: _393  and  _394
REMARK  169  A    between atoms: _393  and  _396
REMARK  170  A    between atoms: _396  and  _397
REMARK  171  A    between atoms: _403  and  _405
REMARK  172  A    between atoms: _405  and  _406
REMARK  173  A    between atoms: _405  and  _408
REMARK  174  A    between atoms: _408  and  _409
REMARK  175  A    between atoms: _412  and  _414
REMARK  176  A    between atoms: _414  and  _415
REMARK  177  A    between atoms: _414  and  _417
REMARK  178  A    between atoms: _417  and  _418
REMARK  179  A    between atoms: _421  and  _423
REMARK  180  A    between atoms: _423  and  _424
REMARK  181  A    between atoms: _427  and  _429
REMARK  182  A    between atoms: _429  and  _430
REMARK  183  A    between atoms: _429  and  _432
REMARK  184  A    between atoms: _432  and  _433
REMARK  185  A    between atoms: _436  and  _438
REMARK  186  A    between atoms: _438  and  _439
REMARK  187  A    between atoms: _438  and  _441
REMARK  188  A    between atoms: _444  and  _446
REMARK  189  A    between atoms: _446  and  _447
REMARK  190  A    between atoms: _450  and  _452
REMARK  191  A    between atoms: _452  and  _453
REMARK  192  A    between atoms: _452  and  _455
REMARK  193  A    between atoms: _455  and  _456
REMARK  194  A    between atoms: _462  and  _464
REMARK  195  A    between atoms: _464  and  _465
REMARK  196  A    between atoms: _464  and  _467
REMARK  197  A    between atoms: _467  and  _468
REMARK  198  A    between atoms: _473  and  _474
REMARK  199  A    between atoms: _476  and  _478
REMARK  200  A    between atoms: _478  and  _479
REMARK  201  A    between atoms: _478  and  _481
REMARK  202  A    between atoms: _481  and  _482
REMARK  203  A    between atoms: _486  and  _487
REMARK                            x       y       z     vdW  Elec       q    Type
REMARK                         _______ _______ _______ _____ _____    ______ ____
ROOT
ATOM      1  CA  LEU A   1     -25.730  11.575 -18.272  0.00  0.00    +0.133 C 
ENDROOT
BRANCH   1   2
ATOM      2  N   LEU A   1     -26.926  11.702 -19.096  0.00  0.00    -0.239 NA
ATOM      3  H   LEU A   1     -26.882  12.204 -20.006  0.00  0.00    +0.142 HD
ENDBRANCH   1   2
BRANCH   1   4
ATOM      4  C   LEU A   1     -25.917  12.358 -16.981  0.00  0.00    +0.224 C 
ATOM      5  O   LEU A   1     -25.555  11.889 -15.892  0.00  0.00    -0.287 OA
ENDBRANCH   1   4
BRANCH   1   6
ATOM      6  CB  LEU A   1     -24.476  12.060 -19.012  0.00  0.00    +0.025 C 
BRANCH   6   7
ATOM      7  CG  LEU A   1     -23.155  12.001 -18.231  0.00  0.00    +0.002 C 
ATOM      8  CD2 LEU A   1     -22.886  10.595 -17.693  0.00  0.00    +0.000 C 
ATOM      9  CD1 LEU A   1     -21.968  12.490 -19.062  0.00  0.00    +0.000 C 
ENDBRANCH   6   7
ENDBRANCH   1   6
TORSDOF 4
REMARK  Name = ../refined-set-2016/4yml/4yml_pocket.pdb
REMARK  203 active torsions:
REMARK  status: ('A' for Active; 'I' for Inactive)
REMARK    1  A    between atoms: _1  and  _3
REMARK    2  A    between atoms: _3  and  _4
REMARK    3  A    between atoms: _6  and  _8
REMARK    4  A    between atoms: _8  and  _9
REMARK    5  A    between atoms: _12  and  _14
REMARK    6  A    between atoms: _14  and  _15
REMARK    7  A    between atoms: _14  and  _17
REMARK    8  A    between atoms: _17  and  _18
REMARK    9  A    between atoms: _18  and  _19
REMARK   10  A    between atoms: _21  and  _23
REMARK   11  A    between atoms: _23  and  _24
REMARK   12  A    between atoms: _23  and  _26
REMARK   13  A    between atoms: _26  and  _27
REMARK   14  A    between atoms: _27  and  _28
REMARK   15  A    between atoms: _31  and  _33
REMARK   16  A    between atoms: _33  and  _34
REMARK   17  A    between atoms: _33  and  _36
REMARK   18  A    between atoms: _36  and  _37
REMARK   19  A    between atoms: _39  and  _41
REMARK   20  A    between atoms: _41  and  _42
REMARK   21  A    between atoms: _44  and  _46
REMARK   22  A    between atoms: _46  and  _47
REMARK   23  A    between atoms: _46  and  _49
REMARK   24  A    between atoms: _49  and  _50
REMARK   25  A    between atoms: _53  and  _55
REMARK   26  A    between atoms: _55  and  _56
REMARK   27  A    between atoms: _58  and  _60
REMARK   28  A    between atoms: _60  and  _61
REMARK   29  A    between atoms: _60  and  _63
REMARK   30  A    between atoms: _63  and  _64
REMARK   31  A    between atoms: _64  and  _65
REMARK   32  A    between atoms: _65  and  _66
REMARK   33  A    between atoms: _66  and  _67
REMARK   34  A    between atoms: _71  and  _73
REMARK   35  A    between atoms: _73  and  _74
REMARK   36  A    between atoms: _73  and  _76
REMARK   37  A    between atoms: _76  and  _77
REMARK   38  A    between atoms: _82  and  _84
REMARK   39  A    between atoms: _84  and  _85
REMARK   40  A    between atoms: _84  and  _87
REMARK   41  A    between atoms: _87  and  _88
REMARK   42  A    between atoms: _91  and  _93
REMARK   43  A    between atoms: _93  and  _94
REMARK   44  A    between atoms: _96  and  _98
REMARK   45  A    between atoms: _98  and  _99
REMARK   46  A    between atoms: _98  and  _101
REMARK   47  A    between atoms: _101  and  _102
REMARK   48  A    between atoms: _104  and  _106
REMARK   49  A    between atoms: _106  and  _107
REMARK   50  A    between atoms: _110  and  _112
REMARK   51  A    between atoms: _112  and  _113
REMARK   52  A    between atoms: _115  and  _117
REMARK   53  A    between atoms: _117  and  _118
REMARK   54  A    between atoms: _120  and  _122
REMARK   55  A    between atoms: _122  and  _123
REMARK   56  A    between atoms: _122  and  _125
REMARK   57  A    between atoms: _125  and  _126
REMARK   58  A    between atoms: _129  and  _131
REMARK   59  A    between atoms: _131  and  _132
REMARK   60  A    between atoms: _131  and  _134
REMARK   61  A    between atoms: _134  and  _135
REMARK   62  A    between atoms: _140  and  _142
REMARK   63  A    between atoms: _142  and  _143
REMARK   64  A    between atoms: _142  and  _145
REMARK   65  A    between atoms: _148  and  _150
REMARK   66  A    between atoms: _150  and  _151
REMARK   67  A    between atoms: _150  and  _153
REMARK   68  A    between atoms: _153  and  _154
REMARK   69  A    between atoms: _156  and  _158
REMARK   70  A    between atoms: _158  and  _159
REMARK   71  A    between atoms: _161  and  _163
REMARK   72  A    between atoms: _163  and  _164
REMARK   73  A    between atoms: _163  and  _166
REMARK   74  A    between atoms: _166  and  _167
REMARK   75  A    between atoms: _170  and  _172
REMARK   76  A    between atoms: _172  and  _173
REMARK   77  A    between atoms: _176  and  _178
REMARK   78  A    between atoms: _178  and  _179
REMARK   79  A    between atoms: _178  and  _181
REMARK   80  A    between atoms: _181  and  _182
REMARK   81  A    between atoms: _188  and  _190
REMARK   82  A    between atoms: _190  and  _191
REMARK   83  A    between atoms: _190  and  _193
REMARK   84  A    between atoms: _193  and  _194
REMARK   85  A    between atoms: _197  and  _199
REMARK   86  A    between atoms: _199  and  _200
REMARK   87  A    between atoms: _199  and  _202
REMARK   88  A    between atoms: _202  and  _203
REMARK   89  A    between atoms: _208  and  _210
REMARK   90  A    between atoms: _210  and  _211
REMARK   91  A    between atoms: _213  and  _215
REMARK   92  A    between atoms: _215  and  _216
REMARK   93  A    between atoms: _215  and  _218
REMARK   94  A    between atoms: _218  and  _219
REMARK   95  A    between atoms: _222  and  _224
REMARK   96  A    between atoms: _224  and  _225
REMARK   97  A    between atoms: _224  and  _227
REMARK   98  A    between atoms: _227  and  _228
REMARK   99  A    between atoms: _231  and  _233
REMARK  100  A    between atoms: _233  and  _234
REMARK  101  A    between atoms: _237  and  _239
REMARK  102  A    between atoms: _239  and  _240
REMARK  103  A    between atoms: _239  and  _242
REMARK  104  A    between atoms: _245  and  _247
REMARK  105  A    between atoms: _247  and  _248
REMARK  106  A    between atoms: _247  and  _250
REMARK  107  A    between atoms: _250  and  _251
REMARK  108  A    between atoms: _251  and  _252
REMARK  109  A    between atoms: _255  and  _257
REMARK  110  A    between atoms: _257  and  _258
REMARK  111  A    between atoms: _257  and  _260
REMARK  112  A    between atoms: _260  and  _261
REMARK  113  A    between atoms: _261  and  _262
REMARK  114  A    between atoms: _264  and  _266
REMARK  115  A    between atoms: _266  and  _267
REMARK  116  A    between atoms: _266  and  _269
REMARK  117  A    between atoms: _269  and  _270
REMARK  118  A    between atoms: _270  and  _271
REMARK  119  A    between atoms: _274  and  _276
REMARK  120  A    between atoms: _276  and  _277
REMARK  121  A    between atoms: _280  and  _282
REMARK  122  A    between atoms: _282  and  _283
REMARK  123  A    between atoms: _282  and  _285
REMARK  124  A    between atoms: _285  and  _286
REMARK  125  A    between atoms: _286  and  _287
REMARK  126  A    between atoms: _287  and  _288
REMARK  127  A    between atoms: _297  and  _299
REMARK  128  A    between atoms: _299  and  _300
REMARK  129  A    between atoms: _303  and  _305
REMARK  130  A    between atoms: _305  and  _306
REMARK  131  A    between atoms: _305  and  _308
REMARK  132  A    between atoms: _308  and  _309
REMARK  133  A    between atoms: _312  and  _314
REMARK  134  A    between atoms: _314  and  _315
REMARK  135  A    between atoms: _314  and  _317
REMARK  136  A    between atoms: _317  and  _318
REMARK  137  A    between atoms: _320  and  _322
REMARK  138  A    between atoms: _322  and  _323
REMARK  139  A    between atoms: _322  and  _325
REMARK  140  A    between atoms: _325  and  _326
REMARK  141  A    between atoms: _329  and  _331
REMARK  142  A    between atoms: _331  and  _332
REMARK  143  A    between atoms: _331  and  _334
REMARK  144  A    between atoms: _337  and  _339
REMARK  145  A    between atoms: _339  and  _340
REMARK  146  A    between atoms: _343  and  _345
REMARK  147  A    between atoms: _345  and  _346
REMARK  148  A    between atoms: _345  and  _348
REMARK  149  A    between atoms: _348  and  _349
REMARK  150  A    between atoms: _352  and  _354
REMARK  151  A    between atoms: _354  and  _355
REMARK  152  A    between atoms: _354  and  _357
REMARK  153  A    between atoms: _357  and  _358
REMARK  154  A    between atoms: _358  and  _359
REMARK  155  A    between atoms: _364  and  _366
REMARK  156  A    between atoms: _366  and  _367
REMARK  157  A    between atoms: _366  and  _369
REMARK  158  A    between atoms: _369  and  _370
REMARK  159  A    between atoms: _372  and  _374
REMARK  160  A    between atoms: _374  and  _375
REMARK  161  A    between atoms: _374  and  _377
REMARK  162  A    between atoms: _377  and  _378
REMARK  163  A    between atoms: _383  and  _385
REMARK  164  A    between atoms: _385  and  _386
REMARK  165  A    between atoms: _385  and  _388
REMARK  166  A    between atoms: _388  and  _389
REMARK  167  A    between atoms: _391  and  _393
REMARK  168  A    between atoms: _393  and  _394
REMARK  169  A    between atoms: _393  and  _396
REMARK  170  A    between atoms: _396  and  _397
REMARK  171  A    between atoms: _403  and  _405
REMARK  172  A    between atoms: _405  and  _406
REMARK  173  A    between atoms: _405  and  _408
REMARK  174  A    between atoms: _408  and  _409
REMARK  175  A    between atoms: _412  and  _414
REMARK  176  A    between atoms: _414  and  _415
REMARK  177  A    between atoms: _414  and  _417
REMARK  178  A    between atoms: _417  and  _418
REMARK  179  A    between atoms: _421  and  _423
REMARK  180  A    between atoms: _423  and  _424
REMARK  181  A    between atoms: _427  and  _429
REMARK  182  A    between atoms: _429  and  _430
REMARK  183  A    between atoms: _429  and  _432
REMARK  184  A    between atoms: _432  and  _433
REMARK  185  A    between atoms: _436  and  _438
REMARK  186  A    between atoms: _438  and  _439
REMARK  187  A    between atoms: _438  and  _441
REMARK  188  A    between atoms: _444  and  _446
REMARK  189  A    between atoms: _446  and  _447
REMARK  190  A    between atoms: _450  and  _452
REMARK  191  A    between atoms: _452  and  _453
REMARK  192  A    between atoms: _452  and  _455
REMARK  193  A    between atoms: _455  and  _456
REMARK  194  A    between atoms: _462  and  _464
REMARK  195  A    between atoms: _464  and  _465
REMARK  196  A    between atoms: _464  and  _467
REMARK  197  A    between atoms: _467  and  _468
REMARK  198  A    between atoms: _473  and  _474
REMARK  199  A    between atoms: _476  and  _478
REMARK  200  A    between atoms: _478  and  _479
REMARK  201  A    between atoms: _478  and  _481
REMARK  202  A    between atoms: _481  and  _482
REMARK  203  A    between atoms: _486  and  _487
REMARK                            x       y       z     vdW  Elec       q    Type
REMARK                         _______ _______ _______ _____ _____    ______ ____
ROOT
ATOM      1  CA  ILE A   1     -27.007   9.535 -13.544  0.00  0.00    +0.133 C 
ENDROOT
BRANCH   1   2
ATOM      2  N   ILE A   1     -27.781  10.589 -14.196  0.00  0.00    -0.239 NA
ATOM      3  H   ILE A   1     -27.670  10.745 -15.218  0.00  0.00    +0.142 HD
ENDBRANCH   1   2
BRANCH   1   4
ATOM      4  C   ILE A   1     -25.978  10.129 -12.583  0.00  0.00    +0.224 C 
ATOM      5  O   ILE A   1     -25.843   9.651 -11.466  0.00  0.00    -0.287 OA
ENDBRANCH   1   4
BRANCH   1   6
ATOM      6  CB  ILE A   1     -26.351   8.575 -14.562  0.00  0.00    +0.023 C 
ATOM      7  CG2 ILE A   1     -25.314   7.685 -13.881  0.00  0.00    +0.002 C 
BRANCH   6   8
ATOM      8  CG1 ILE A   1     -27.440   7.742 -15.228  0.00  0.00    +0.002 C 
ATOM      9  CD1 ILE A   1     -27.000   7.026 -16.470  0.00  0.00    +0.000 C 
ENDBRANCH   6   8
ENDBRANCH   1   6
TORSDOF 4
REMARK  Name = ../refined-set-2016/4yml/4yml_pocket.pdb
REMARK  203 active torsions:
REMARK  status: ('A' for Active; 'I' for Inactive)
REMARK    1  A    between atoms: _1  and  _3
REMARK    2  A    between atoms: _3  and  _4
REMARK    3  A    between atoms: _6  and  _8
REMARK    4  A    between atoms: _8  and  _9
REMARK    5  A    between atoms: _12  and  _14
REMARK    6  A    between atoms: _14  and  _15
REMARK    7  A    between atoms: _14  and  _17
REMARK    8  A    between atoms: _17  and  _18
REMARK    9  A    between atoms: _18  and  _19
REMARK   10  A    between atoms: _21  and  _23
REMARK   11  A    between atoms: _23  and  _24
REMARK   12  A    between atoms: _23  and  _26
REMARK   13  A    between atoms: _26  and  _27
REMARK   14  A    between atoms: _27  and  _28
REMARK   15  A    between atoms: _31  and  _33
REMARK   16  A    between atoms: _33  and  _34
REMARK   17  A    between atoms: _33  and  _36
REMARK   18  A    between atoms: _36  and  _37
REMARK   19  A    between atoms: _39  and  _41
REMARK   20  A    between atoms: _41  and  _42
REMARK   21  A    between atoms: _44  and  _46
REMARK   22  A    between atoms: _46  and  _47
REMARK   23  A    between atoms: _46  and  _49
REMARK   24  A    between atoms: _49  and  _50
REMARK   25  A    between atoms: _53  and  _55
REMARK   26  A    between atoms: _55  and  _56
REMARK   27  A    between atoms: _58  and  _60
REMARK   28  A    between atoms: _60  and  _61
REMARK   29  A    between atoms: _60  and  _63
REMARK   30  A    between atoms: _63  and  _64
REMARK   31  A    between atoms: _64  and  _65
REMARK   32  A    between atoms: _65  and  _66
REMARK   33  A    between atoms: _66  and  _67
REMARK   34  A    between atoms: _71  and  _73
REMARK   35  A    between atoms: _73  and  _74
REMARK   36  A    between atoms: _73  and  _76
REMARK   37  A    between atoms: _76  and  _77
REMARK   38  A    between atoms: _82  and  _84
REMARK   39  A    between atoms: _84  and  _85
REMARK   40  A    between atoms: _84  and  _87
REMARK   41  A    between atoms: _87  and  _88
REMARK   42  A    between atoms: _91  and  _93
REMARK   43  A    between atoms: _93  and  _94
REMARK   44  A    between atoms: _96  and  _98
REMARK   45  A    between atoms: _98  and  _99
REMARK   46  A    between atoms: _98  and  _101
REMARK   47  A    between atoms: _101  and  _102
REMARK   48  A    between atoms: _104  and  _106
REMARK   49  A    between atoms: _106  and  _107
REMARK   50  A    between atoms: _110  and  _112
REMARK   51  A    between atoms: _112  and  _113
REMARK   52  A    between atoms: _115  and  _117
REMARK   53  A    between atoms: _117  and  _118
REMARK   54  A    between atoms: _120  and  _122
REMARK   55  A    between atoms: _122  and  _123
REMARK   56  A    between atoms: _122  and  _125
REMARK   57  A    between atoms: _125  and  _126
REMARK   58  A    between atoms: _129  and  _131
REMARK   59  A    between atoms: _131  and  _132
REMARK   60  A    between atoms: _131  and  _134
REMARK   61  A    between atoms: _134  and  _135
REMARK   62  A    between atoms: _140  and  _142
REMARK   63  A    between atoms: _142  and  _143
REMARK   64  A    between atoms: _142  and  _145
REMARK   65  A    between atoms: _148  and  _150
REMARK   66  A    between atoms: _150  and  _151
REMARK   67  A    between atoms: _150  and  _153
REMARK   68  A    between atoms: _153  and  _154
REMARK   69  A    between atoms: _156  and  _158
REMARK   70  A    between atoms: _158  and  _159
REMARK   71  A    between atoms: _161  and  _163
REMARK   72  A    between atoms: _163  and  _164
REMARK   73  A    between atoms: _163  and  _166
REMARK   74  A    between atoms: _166  and  _167
REMARK   75  A    between atoms: _170  and  _172
REMARK   76  A    between atoms: _172  and  _173
REMARK   77  A    between atoms: _176  and  _178
REMARK   78  A    between atoms: _178  and  _179
REMARK   79  A    between atoms: _178  and  _181
REMARK   80  A    between atoms: _181  and  _182
REMARK   81  A    between atoms: _188  and  _190
REMARK   82  A    between atoms: _190  and  _191
REMARK   83  A    between atoms: _190  and  _193
REMARK   84  A    between atoms: _193  and  _194
REMARK   85  A    between atoms: _197  and  _199
REMARK   86  A    between atoms: _199  and  _200
REMARK   87  A    between atoms: _199  and  _202
REMARK   88  A    between atoms: _202  and  _203
REMARK   89  A    between atoms: _208  and  _210
REMARK   90  A    between atoms: _210  and  _211
REMARK   91  A    between atoms: _213  and  _215
REMARK   92  A    between atoms: _215  and  _216
REMARK   93  A    between atoms: _215  and  _218
REMARK   94  A    between atoms: _218  and  _219
REMARK   95  A    between atoms: _222  and  _224
REMARK   96  A    between atoms: _224  and  _225
REMARK   97  A    between atoms: _224  and  _227
REMARK   98  A    between atoms: _227  and  _228
REMARK   99  A    between atoms: _231  and  _233
REMARK  100  A    between atoms: _233  and  _234
REMARK  101  A    between atoms: _237  and  _239
REMARK  102  A    between atoms: _239  and  _240
REMARK  103  A    between atoms: _239  and  _242
REMARK  104  A    between atoms: _245  and  _247
REMARK  105  A    between atoms: _247  and  _248
REMARK  106  A    between atoms: _247  and  _250
REMARK  107  A    between atoms: _250  and  _251
REMARK  108  A    between atoms: _251  and  _252
REMARK  109  A    between atoms: _255  and  _257
REMARK  110  A    between atoms: _257  and  _258
REMARK  111  A    between atoms: _257  and  _260
REMARK  112  A    between atoms: _260  and  _261
REMARK  113  A    between atoms: _261  and  _262
REMARK  114  A    between atoms: _264  and  _266
REMARK  115  A    between atoms: _266  and  _267
REMARK  116  A    between atoms: _266  and  _269
REMARK  117  A    between atoms: _269  and  _270
REMARK  118  A    between atoms: _270  and  _271
REMARK  119  A    between atoms: _274  and  _276
REMARK  120  A    between atoms: _276  and  _277
REMARK  121  A    between atoms: _280  and  _282
REMARK  122  A    between atoms: _282  and  _283
REMARK  123  A    between atoms: _282  and  _285
REMARK  124  A    between atoms: _285  and  _286
REMARK  125  A    between atoms: _286  and  _287
REMARK  126  A    between atoms: _287  and  _288
REMARK  127  A    between atoms: _297  and  _299
REMARK  128  A    between atoms: _299  and  _300
REMARK  129  A    between atoms: _303  and  _305
REMARK  130  A    between atoms: _305  and  _306
REMARK  131  A    between atoms: _305  and  _308
REMARK  132  A    between atoms: _308  and  _309
REMARK  133  A    between atoms: _312  and  _314
REMARK  134  A    between atoms: _314  and  _315
REMARK  135  A    between atoms: _314  and  _317
REMARK  136  A    between atoms: _317  and  _318
REMARK  137  A    between atoms: _320  and  _322
REMARK  138  A    between atoms: _322  and  _323
REMARK  139  A    between atoms: _322  and  _325
REMARK  140  A    between atoms: _325  and  _326
REMARK  141  A    between atoms: _329  and  _331
REMARK  142  A    between atoms: _331  and  _332
REMARK  143  A    between atoms: _331  and  _334
REMARK  144  A    between atoms: _337  and  _339
REMARK  145  A    between atoms: _339  and  _340
REMARK  146  A    between atoms: _343  and  _345
REMARK  147  A    between atoms: _345  and  _346
REMARK  148  A    between atoms: _345  and  _348
REMARK  149  A    between atoms: _348  and  _349
REMARK  150  A    between atoms: _352  and  _354
REMARK  151  A    between atoms: _354  and  _355
REMARK  152  A    between atoms: _354  and  _357
REMARK  153  A    between atoms: _357  and  _358
REMARK  154  A    between atoms: _358  and  _359
REMARK  155  A    between atoms: _364  and  _366
REMARK  156  A    between atoms: _366  and  _367
REMARK  157  A    between atoms: _366  and  _369
REMARK  158  A    between atoms: _369  and  _370
REMARK  159  A    between atoms: _372  and  _374
REMARK  160  A    between atoms: _374  and  _375
REMARK  161  A    between atoms: _374  and  _377
REMARK  162  A    between atoms: _377  and  _378
REMARK  163  A    between atoms: _383  and  _385
REMARK  164  A    between atoms: _385  and  _386
REMARK  165  A    between atoms: _385  and  _388
REMARK  166  A    between atoms: _388  and  _389
REMARK  167  A    between atoms: _391  and  _393
REMARK  168  A    between atoms: _393  and  _394
REMARK  169  A    between atoms: _393  and  _396
REMARK  170  A    between atoms: _396  and  _397
REMARK  171  A    between atoms: _403  and  _405
REMARK  172  A    between atoms: _405  and  _406
REMARK  173  A    between atoms: _405  and  _408
REMARK  174  A    between atoms: _408  and  _409
REMARK  175  A    between atoms: _412  and  _414
REMARK  176  A    between atoms: _414  and  _415
REMARK  177  A    between atoms: _414  and  _417
REMARK  178  A    between atoms: _417  and  _418
REMARK  179  A    between atoms: _421  and  _423
REMARK  180  A    between atoms: _423  and  _424
REMARK  181  A    between atoms: _427  and  _429
REMARK  182  A    between atoms: _429  and  _430
REMARK  183  A    between atoms: _429  and  _432
REMARK  184  A    between atoms: _432  and  _433
REMARK  185  A    between atoms: _436  and  _438
REMARK  186  A    between atoms: _438  and  _439
REMARK  187  A    between atoms: _438  and  _441
REMARK  188  A    between atoms: _444  and  _446
REMARK  189  A    between atoms: _446  and  _447
REMARK  190  A    between atoms: _450  and  _452
REMARK  191  A    between atoms: _452  and  _453
REMARK  192  A    between atoms: _452  and  _455
REMARK  193  A    between atoms: _455  and  _456
REMARK  194  A    between atoms: _462  and  _464
REMARK  195  A    between atoms: _464  and  _465
REMARK  196  A    between atoms: _464  and  _467
REMARK  197  A    between atoms: _467  and  _468
REMARK  198  A    between atoms: _473  and  _474
REMARK  199  A    between atoms: _476  and  _478
REMARK  200  A    between atoms: _478  and  _479
REMARK  201  A    between atoms: _478  and  _481
REMARK  202  A    between atoms: _481  and  _482
REMARK  203  A    between atoms: _486  and  _487
REMARK                            x       y       z     vdW  Elec       q    Type
REMARK                         _______ _______ _______ _____ _____    ______ ____
ROOT
ATOM      1  C   GLU A   3     -25.856  -0.613 -19.096  0.00  0.00    +0.241 C 
ATOM      2  O   GLU A   3     -26.647   0.063 -18.464  0.00  0.00    -0.273 OA
ATOM      3  N   MET A   4     -26.219  -1.703 -19.775  0.00  0.00    -0.297 N 
ATOM      4  H   MET A   4     -25.494  -2.325 -20.186  0.00  0.00    +0.150 HD
ENDROOT
BRANCH   1   5
ATOM      5  CA  GLU A   3     -24.403  -0.144 -19.156  0.00  0.00    +0.149 C 
BRANCH   5   7
ATOM      6  C   VAL A   2     -23.154   1.599 -18.029  0.00  0.00    +0.241 C 
ATOM      7  N   GLU A   3     -24.162   0.723 -18.007  0.00  0.00    -0.297 N 
ATOM      8  H   GLU A   3     -24.776   0.659 -17.170  0.00  0.00    +0.150 HD
ATOM      9  O   VAL A   2     -22.310   1.637 -18.945  0.00  0.00    -0.273 OA
BRANCH   6  10
ATOM     10  CA  VAL A   2     -23.066   2.565 -16.859  0.00  0.00    +0.148 C 
BRANCH  10  13
ATOM     11  C   ALA A   1     -21.222   2.698 -15.259  0.00  0.00    +0.238 C 
ATOM     12  O   ALA A   1     -21.938   2.452 -14.274  0.00  0.00    -0.274 OA
ATOM     13  N   VAL A   2     -21.665   2.757 -16.511  0.00  0.00    -0.297 N 
ATOM     14  H   VAL A   2     -20.983   2.948 -17.273  0.00  0.00    +0.150 HD
BRANCH  11  15
ATOM     15  CA  ALA A   1     -19.715   2.902 -15.092  0.00  0.00    +0.145 C 
ATOM     16  CB  ALA A   1     -18.959   1.639 -15.526  0.00  0.00    +0.028 C 
BRANCH  15  17
ATOM     17  N   ALA A   1     -19.423   3.257 -13.701  0.00  0.00    -0.238 NA
ATOM     18  H   ALA A   1     -20.130   3.053 -12.966  0.00  0.00    +0.142 HD
ENDBRANCH  15  17
ENDBRANCH  11  15
ENDBRANCH  10  13
BRANCH  10  19
ATOM     19  CB  VAL A   2     -23.765   3.895 -17.205  0.00  0.00    +0.027 C 
ATOM     20  CG2 VAL A   2     -25.228   3.659 -17.559  0.00  0.00    +0.002 C 
ATOM     21  CG1 VAL A   2     -23.082   4.606 -18.370  0.00  0.00    +0.002 C 
ENDBRANCH  10  19
ENDBRANCH   6  10
ENDBRANCH   5   7
BRANCH   5  22
ATOM     22  CB  GLU A   3     -23.355  -1.266 -19.259  0.00  0.00    +0.041 C 
BRANCH  22  23
ATOM     23  CG  GLU A   3     -23.002  -1.933 -17.947  0.00  0.00    +0.116 C 
BRANCH  23  24
ATOM     24  CD  GLU A   3     -24.194  -2.629 -17.358  0.00  0.00    +0.365 C 
ATOM     25  OE2 GLU A   3     -24.820  -2.064 -16.432  0.00  0.00    -0.246 OA
ATOM     26  OE1 GLU A   3     -24.521  -3.722 -17.870  0.00  0.00    -0.246 OA
ENDBRANCH  23  24
ENDBRANCH  22  23
ENDBRANCH   5  22
ENDBRANCH   1   5
BRANCH   3  27
ATOM     27  CA  MET A   4     -27.655  -2.028 -19.944  0.00  0.00    +0.149 C 
BRANCH  27  28
ATOM     28  C   MET A   4     -28.119  -3.407 -19.490  0.00  0.00    +0.241 C 
ATOM     29  N   GLU A   5     -27.242  -4.208 -18.884  0.00  0.00    -0.297 N 
ATOM     30  H   GLU A   5     -26.280  -3.860 -18.695  0.00  0.00    +0.150 HD
ATOM     31  O   MET A   4     -29.289  -3.724 -19.658  0.00  0.00    -0.273 OA
BRANCH  29  32
ATOM     32  CA  GLU A   5     -27.602  -5.557 -18.482  0.00  0.00    +0.149 C 
BRANCH  32  33
ATOM     33  C   GLU A   5     -27.168  -5.979 -17.099  0.00  0.00    +0.241 C 
ATOM     34  O   GLU A   5     -27.793  -6.868 -16.525  0.00  0.00    -0.273 OA
ATOM     35  N   ALA A   6     -26.078  -5.402 -16.587  0.00  0.00    -0.298 N 
ATOM     36  H   ALA A   6     -25.691  -4.547 -17.035  0.00  0.00    +0.150 HD
BRANCH  35  37
ATOM     37  CA  ALA A   6     -25.421  -5.958 -15.404  0.00  0.00    +0.137 C 
ATOM     38  CB  ALA A   6     -24.231  -5.091 -15.002  0.00  0.00    +0.030 C 
BRANCH  37  39
ATOM     39  C   ALA A   6     -26.372  -6.105 -14.228  0.00  0.00    +0.227 C 
ATOM     40  O   ALA A   6     -26.356  -7.121 -13.531  0.00  0.00    -0.286 OA
ENDBRANCH  37  39
ENDBRANCH  35  37
ENDBRANCH  32  33
BRANCH  32  41
ATOM     41  CB  GLU A   5     -27.000  -6.593 -19.433  0.00  0.00    +0.041 C 
BRANCH  41  42
ATOM     42  CG  GLU A   5     -27.477  -6.517 -20.869  0.00  0.00    +0.116 C 
BRANCH  42  43
ATOM     43  CD  GLU A   5     -26.705  -5.540 -21.706  0.00  0.00    +0.365 C 
ATOM     44  OE2 GLU A   5     -25.478  -5.331 -21.469  0.00  0.00    -0.246 OA
ATOM     45  OE1 GLU A   5     -27.329  -4.991 -22.623  0.00  0.00    -0.246 OA
ENDBRANCH  42  43
ENDBRANCH  41  42
ENDBRANCH  32  41
ENDBRANCH  29  32
ENDBRANCH  27  28
BRANCH  27  46
ATOM     46  CB  MET A   4     -28.093  -1.810 -21.404  0.00  0.00    +0.041 C 
BRANCH  46  47
ATOM     47  CG  MET A   4     -27.837  -0.405 -21.917  0.00  0.00    +0.060 C 
BRANCH  47  48
ATOM     48  SD  MET A   4     -28.180  -0.129 -23.678  0.00  0.00    -0.139 S 
ATOM     49  CE  MET A   4     -29.934  -0.461 -23.792  0.00  0.00    +0.069 C 
ENDBRANCH  47  48
ENDBRANCH  46  47
ENDBRANCH  27  46
ENDBRANCH   3  27
TORSDOF 22
REMARK  Name = ../refined-set-2016/4yml/4yml_pocket.pdb
REMARK  203 active torsions:
REMARK  status: ('A' for Active; 'I' for Inactive)
REMARK    1  A    between atoms: _1  and  _3
REMARK    2  A    between atoms: _3  and  _4
REMARK    3  A    between atoms: _6  and  _8
REMARK    4  A    between atoms: _8  and  _9
REMARK    5  A    between atoms: _12  and  _14
REMARK    6  A    between atoms: _14  and  _15
REMARK    7  A    between atoms: _14  and  _17
REMARK    8  A    between atoms: _17  and  _18
REMARK    9  A    between atoms: _18  and  _19
REMARK   10  A    between atoms: _21  and  _23
REMARK   11  A    between atoms: _23  and  _24
REMARK   12  A    between atoms: _23  and  _26
REMARK   13  A    between atoms: _26  and  _27
REMARK   14  A    between atoms: _27  and  _28
REMARK   15  A    between atoms: _31  and  _33
REMARK   16  A    between atoms: _33  and  _34
REMARK   17  A    between atoms: _33  and  _36
REMARK   18  A    between atoms: _36  and  _37
REMARK   19  A    between atoms: _39  and  _41
REMARK   20  A    between atoms: _41  and  _42
REMARK   21  A    between atoms: _44  and  _46
REMARK   22  A    between atoms: _46  and  _47
REMARK   23  A    between atoms: _46  and  _49
REMARK   24  A    between atoms: _49  and  _50
REMARK   25  A    between atoms: _53  and  _55
REMARK   26  A    between atoms: _55  and  _56
REMARK   27  A    between atoms: _58  and  _60
REMARK   28  A    between atoms: _60  and  _61
REMARK   29  A    between atoms: _60  and  _63
REMARK   30  A    between atoms: _63  and  _64
REMARK   31  A    between atoms: _64  and  _65
REMARK   32  A    between atoms: _65  and  _66
REMARK   33  A    between atoms: _66  and  _67
REMARK   34  A    between atoms: _71  and  _73
REMARK   35  A    between atoms: _73  and  _74
REMARK   36  A    between atoms: _73  and  _76
REMARK   37  A    between atoms: _76  and  _77
REMARK   38  A    between atoms: _82  and  _84
REMARK   39  A    between atoms: _84  and  _85
REMARK   40  A    between atoms: _84  and  _87
REMARK   41  A    between atoms: _87  and  _88
REMARK   42  A    between atoms: _91  and  _93
REMARK   43  A    between atoms: _93  and  _94
REMARK   44  A    between atoms: _96  and  _98
REMARK   45  A    between atoms: _98  and  _99
REMARK   46  A    between atoms: _98  and  _101
REMARK   47  A    between atoms: _101  and  _102
REMARK   48  A    between atoms: _104  and  _106
REMARK   49  A    between atoms: _106  and  _107
REMARK   50  A    between atoms: _110  and  _112
REMARK   51  A    between atoms: _112  and  _113
REMARK   52  A    between atoms: _115  and  _117
REMARK   53  A    between atoms: _117  and  _118
REMARK   54  A    between atoms: _120  and  _122
REMARK   55  A    between atoms: _122  and  _123
REMARK   56  A    between atoms: _122  and  _125
REMARK   57  A    between atoms: _125  and  _126
REMARK   58  A    between atoms: _129  and  _131
REMARK   59  A    between atoms: _131  and  _132
REMARK   60  A    between atoms: _131  and  _134
REMARK   61  A    between atoms: _134  and  _135
REMARK   62  A    between atoms: _140  and  _142
REMARK   63  A    between atoms: _142  and  _143
REMARK   64  A    between atoms: _142  and  _145
REMARK   65  A    between atoms: _148  and  _150
REMARK   66  A    between atoms: _150  and  _151
REMARK   67  A    between atoms: _150  and  _153
REMARK   68  A    between atoms: _153  and  _154
REMARK   69  A    between atoms: _156  and  _158
REMARK   70  A    between atoms: _158  and  _159
REMARK   71  A    between atoms: _161  and  _163
REMARK   72  A    between atoms: _163  and  _164
REMARK   73  A    between atoms: _163  and  _166
REMARK   74  A    between atoms: _166  and  _167
REMARK   75  A    between atoms: _170  and  _172
REMARK   76  A    between atoms: _172  and  _173
REMARK   77  A    between atoms: _176  and  _178
REMARK   78  A    between atoms: _178  and  _179
REMARK   79  A    between atoms: _178  and  _181
REMARK   80  A    between atoms: _181  and  _182
REMARK   81  A    between atoms: _188  and  _190
REMARK   82  A    between atoms: _190  and  _191
REMARK   83  A    between atoms: _190  and  _193
REMARK   84  A    between atoms: _193  and  _194
REMARK   85  A    between atoms: _197  and  _199
REMARK   86  A    between atoms: _199  and  _200
REMARK   87  A    between atoms: _199  and  _202
REMARK   88  A    between atoms: _202  and  _203
REMARK   89  A    between atoms: _208  and  _210
REMARK   90  A    between atoms: _210  and  _211
REMARK   91  A    between atoms: _213  and  _215
REMARK   92  A    between atoms: _215  and  _216
REMARK   93  A    between atoms: _215  and  _218
REMARK   94  A    between atoms: _218  and  _219
REMARK   95  A    between atoms: _222  and  _224
REMARK   96  A    between atoms: _224  and  _225
REMARK   97  A    between atoms: _224  and  _227
REMARK   98  A    between atoms: _227  and  _228
REMARK   99  A    between atoms: _231  and  _233
REMARK  100  A    between atoms: _233  and  _234
REMARK  101  A    between atoms: _237  and  _239
REMARK  102  A    between atoms: _239  and  _240
REMARK  103  A    between atoms: _239  and  _242
REMARK  104  A    between atoms: _245  and  _247
REMARK  105  A    between atoms: _247  and  _248
REMARK  106  A    between atoms: _247  and  _250
REMARK  107  A    between atoms: _250  and  _251
REMARK  108  A    between atoms: _251  and  _252
REMARK  109  A    between atoms: _255  and  _257
REMARK  110  A    between atoms: _257  and  _258
REMARK  111  A    between atoms: _257  and  _260
REMARK  112  A    between atoms: _260  and  _261
REMARK  113  A    between atoms: _261  and  _262
REMARK  114  A    between atoms: _264  and  _266
REMARK  115  A    between atoms: _266  and  _267
REMARK  116  A    between atoms: _266  and  _269
REMARK  117  A    between atoms: _269  and  _270
REMARK  118  A    between atoms: _270  and  _271
REMARK  119  A    between atoms: _274  and  _276
REMARK  120  A    between atoms: _276  and  _277
REMARK  121  A    between atoms: _280  and  _282
REMARK  122  A    between atoms: _282  and  _283
REMARK  123  A    between atoms: _282  and  _285
REMARK  124  A    between atoms: _285  and  _286
REMARK  125  A    between atoms: _286  and  _287
REMARK  126  A    between atoms: _287  and  _288
REMARK  127  A    between atoms: _297  and  _299
REMARK  128  A    between atoms: _299  and  _300
REMARK  129  A    between atoms: _303  and  _305
REMARK  130  A    between atoms: _305  and  _306
REMARK  131  A    between atoms: _305  and  _308
REMARK  132  A    between atoms: _308  and  _309
REMARK  133  A    between atoms: _312  and  _314
REMARK  134  A    between atoms: _314  and  _315
REMARK  135  A    between atoms: _314  and  _317
REMARK  136  A    between atoms: _317  and  _318
REMARK  137  A    between atoms: _320  and  _322
REMARK  138  A    between atoms: _322  and  _323
REMARK  139  A    between atoms: _322  and  _325
REMARK  140  A    between atoms: _325  and  _326
REMARK  141  A    between atoms: _329  and  _331
REMARK  142  A    between atoms: _331  and  _332
REMARK  143  A    between atoms: _331  and  _334
REMARK  144  A    between atoms: _337  and  _339
REMARK  145  A    between atoms: _339  and  _340
REMARK  146  A    between atoms: _343  and  _345
REMARK  147  A    between atoms: _345  and  _346
REMARK  148  A    between atoms: _345  and  _348
REMARK  149  A    between atoms: _348  and  _349
REMARK  150  A    between atoms: _352  and  _354
REMARK  151  A    between atoms: _354  and  _355
REMARK  152  A    between atoms: _354  and  _357
REMARK  153  A    between atoms: _357  and  _358
REMARK  154  A    between atoms: _358  and  _359
REMARK  155  A    between atoms: _364  and  _366
REMARK  156  A    between atoms: _366  and  _367
REMARK  157  A    between atoms: _366  and  _369
REMARK  158  A    between atoms: _369  and  _370
REMARK  159  A    between atoms: _372  and  _374
REMARK  160  A    between atoms: _374  and  _375
REMARK  161  A    between atoms: _374  and  _377
REMARK  162  A    between atoms: _377  and  _378
REMARK  163  A    between atoms: _383  and  _385
REMARK  164  A    between atoms: _385  and  _386
REMARK  165  A    between atoms: _385  and  _388
REMARK  166  A    between atoms: _388  and  _389
REMARK  167  A    between atoms: _391  and  _393
REMARK  168  A    between atoms: _393  and  _394
REMARK  169  A    between atoms: _393  and  _396
REMARK  170  A    between atoms: _396  and  _397
REMARK  171  A    between atoms: _403  and  _405
REMARK  172  A    between atoms: _405  and  _406
REMARK  173  A    between atoms: _405  and  _408
REMARK  174  A    between atoms: _408  and  _409
REMARK  175  A    between atoms: _412  and  _414
REMARK  176  A    between atoms: _414  and  _415
REMARK  177  A    between atoms: _414  and  _417
REMARK  178  A    between atoms: _417  and  _418
REMARK  179  A    between atoms: _421  and  _423
REMARK  180  A    between atoms: _423  and  _424
REMARK  181  A    between atoms: _427  and  _429
REMARK  182  A    between atoms: _429  and  _430
REMARK  183  A    between atoms: _429  and  _432
REMARK  184  A    between atoms: _432  and  _433
REMARK  185  A    between atoms: _436  and  _438
REMARK  186  A    between atoms: _438  and  _439
REMARK  187  A    between atoms: _438  and  _441
REMARK  188  A    between atoms: _444  and  _446
REMARK  189  A    between atoms: _446  and  _447
REMARK  190  A    between atoms: _450  and  _452
REMARK  191  A    between atoms: _452  and  _453
REMARK  192  A    between atoms: _452  and  _455
REMARK  193  A    between atoms: _455  and  _456
REMARK  194  A    between atoms: _462  and  _464
REMARK  195  A    between atoms: _464  and  _465
REMARK  196  A    between atoms: _464  and  _467
REMARK  197  A    between atoms: _467  and  _468
REMARK  198  A    between atoms: _473  and  _474
REMARK  199  A    between atoms: _476  and  _478
REMARK  200  A    between atoms: _478  and  _479
REMARK  201  A    between atoms: _478  and  _481
REMARK  202  A    between atoms: _481  and  _482
REMARK  203  A    between atoms: _486  and  _487
REMARK                            x       y       z     vdW  Elec       q    Type
REMARK                         _______ _______ _______ _____ _____    ______ ____
ROOT
ATOM      1  CA  SER A   4     -15.675   1.672 -24.701  0.00  0.00    +0.178 C 
ENDROOT
BRANCH   1   2
ATOM      2  C   SER A   4     -15.849   3.166 -25.040  0.00  0.00    +0.243 C 
ATOM      3  N   ASP A   5     -16.206   3.961 -24.031  0.00  0.00    -0.296 N 
ATOM      4  H   ASP A   5     -16.164   3.571 -23.068  0.00  0.00    +0.150 HD
ATOM      5  O   SER A   4     -15.676   3.568 -26.204  0.00  0.00    -0.273 OA
BRANCH   3   6
ATOM      6  CA  ASP A   5     -16.653   5.344 -24.186  0.00  0.00    +0.160 C 
BRANCH   6   7
ATOM      7  C   ASP A   5     -16.912   5.927 -22.796  0.00  0.00    +0.241 C 
ATOM      8  O   ASP A   5     -16.945   5.187 -21.809  0.00  0.00    -0.273 OA
ATOM      9  N   VAL A   6     -17.096   7.243 -22.698  0.00  0.00    -0.297 N 
ATOM     10  H   VAL A   6     -17.113   7.827 -23.558  0.00  0.00    +0.150 HD
BRANCH   9  11
ATOM     11  CA  VAL A   6     -17.275   7.874 -21.386  0.00  0.00    +0.149 C 
BRANCH  11  12
ATOM     12  C   VAL A   6     -18.695   8.452 -21.193  0.00  0.00    +0.241 C 
ATOM     13  O   VAL A   6     -18.904   9.349 -20.354  0.00  0.00    -0.273 OA
ATOM     14  N   ALA A   7     -19.632   7.968 -22.000  0.00  0.00    -0.297 N 
ATOM     15  H   ALA A   7     -19.335   7.372 -22.799  0.00  0.00    +0.150 HD
BRANCH  14  16
ATOM     16  CA  ALA A   7     -21.076   8.232 -21.822  0.00  0.00    +0.149 C 
ATOM     17  CB  ALA A   7     -21.521   7.740 -20.447  0.00  0.00    +0.031 C 
BRANCH  16  18
ATOM     18  C   ALA A   7     -21.474   9.687 -22.020  0.00  0.00    +0.241 C 
ATOM     19  O   ALA A   7     -22.525  10.123 -21.541  0.00  0.00    -0.273 OA
ATOM     20  N   ASP A   8     -20.642  10.412 -22.771  0.00  0.00    -0.298 N 
ATOM     21  H   ASP A   8     -19.824   9.936 -23.201  0.00  0.00    +0.150 HD
BRANCH  20  22
ATOM     22  CA  ASP A   8     -20.819  11.816 -23.015  0.00  0.00    +0.148 C 
BRANCH  22  23
ATOM     23  C   ASP A   8     -21.361  11.987 -24.449  0.00  0.00    +0.227 C 
ATOM     24  O   ASP A   8     -21.805  11.005 -25.098  0.00  0.00    -0.286 OA
ENDBRANCH  22  23
BRANCH  22  25
ATOM     25  CB  ASP A   8     -19.465  12.547 -22.780  0.00  0.00    +0.142 C 
BRANCH  25  26
ATOM     26  CG  ASP A   8     -18.405  12.203 -23.838  0.00  0.00    +0.367 C 
ATOM     27  OD2 ASP A   8     -17.351  12.880 -23.898  0.00  0.00    -0.246 OA
ATOM     28  OD1 ASP A   8     -18.603  11.259 -24.617  0.00  0.00    -0.246 OA
ENDBRANCH  25  26
ENDBRANCH  22  25
ENDBRANCH  20  22
ENDBRANCH  16  18
ENDBRANCH  14  16
ENDBRANCH  11  12
BRANCH  11  29
ATOM     29  CB  VAL A   6     -16.187   8.932 -21.086  0.00  0.00    +0.027 C 
ATOM     30  CG2 VAL A   6     -14.855   8.255 -20.785  0.00  0.00    +0.002 C 
ATOM     31  CG1 VAL A   6     -16.054   9.949 -22.208  0.00  0.00    +0.002 C 
ENDBRANCH  11  29
ENDBRANCH   9  11
ENDBRANCH   6   7
BRANCH   6  32
ATOM     32  CB  ASP A   5     -17.928   5.412 -25.025  0.00  0.00    +0.143 C 
BRANCH  32  33
ATOM     33  CG  ASP A   5     -19.111   4.744 -24.339  0.00  0.00    +0.367 C 
ATOM     34  OD2 ASP A   5     -19.757   5.402 -23.483  0.00  0.00    -0.246 OA
ATOM     35  OD1 ASP A   5     -19.358   3.558 -24.644  0.00  0.00    -0.246 OA
ENDBRANCH  32  33
ENDBRANCH   6  32
ENDBRANCH   3   6
ENDBRANCH   1   2
BRANCH   1  38
ATOM     36  C   ILE A   3     -14.465   1.082 -22.656  0.00  0.00    +0.241 C 
ATOM     37  O   ILE A   3     -13.381   0.952 -23.263  0.00  0.00    -0.273 OA
ATOM     38  N   SER A   4     -15.601   1.393 -23.267  0.00  0.00    -0.295 N 
ATOM     39  H   SER A   4     -16.474   1.440 -22.704  0.00  0.00    +0.150 HD
BRANCH  36  40
ATOM     40  CA  ILE A   3     -14.557   0.900 -21.137  0.00  0.00    +0.149 C 
BRANCH  40  42
ATOM     41  C   ALA A   2     -14.734  -1.528 -20.781  0.00  0.00    +0.241 C 
ATOM     42  N   ILE A   3     -14.049  -0.393 -20.654  0.00  0.00    -0.297 N 
ATOM     43  H   ILE A   3     -13.117  -0.422 -20.194  0.00  0.00    +0.150 HD
ATOM     44  O   ALA A   2     -15.769  -1.634 -21.445  0.00  0.00    -0.273 OA
BRANCH  41  45
ATOM     45  CA  ALA A   2     -14.125  -2.731 -20.092  0.00  0.00    +0.149 C 
ATOM     46  CB  ALA A   2     -13.137  -3.414 -21.022  0.00  0.00    +0.031 C 
BRANCH  45  49
ATOM     47  C   ARG A   1     -15.210  -4.137 -18.439  0.00  0.00    +0.238 C 
ATOM     48  O   ARG A   1     -14.370  -3.863 -17.562  0.00  0.00    -0.274 OA
ATOM     49  N   ALA A   2     -15.159  -3.663 -19.678  0.00  0.00    -0.297 N 
ATOM     50  H   ALA A   2     -15.876  -3.966 -20.368  0.00  0.00    +0.150 HD
BRANCH  47  51
ATOM     51  CA  ARG A   1     -16.379  -5.071 -18.141  0.00  0.00    +0.145 C 
BRANCH  51  52
ATOM     52  N   ARG A   1     -16.225  -5.674 -16.826  0.00  0.00    -0.238 NA
ATOM     53  H   ARG A   1     -16.207  -5.056 -15.990  0.00  0.00    +0.142 HD
ENDBRANCH  51  52
BRANCH  51  54
ATOM     54  CB  ARG A   1     -17.718  -4.328 -18.235  0.00  0.00    +0.030 C 
BRANCH  54  55
ATOM     55  CG  ARG A   1     -18.915  -5.267 -18.248  0.00  0.00    +0.045 C 
BRANCH  55  56
ATOM     56  CD  ARG A   1     -20.212  -4.481 -18.125  0.00  0.00    +0.174 C 
BRANCH  56  57
ATOM     57  NE  ARG A   1     -21.393  -5.325 -18.283  0.00  0.00    -0.265 N 
ATOM     58  HE  ARG A   1     -21.680  -5.897 -17.463  0.00  0.00    +0.259 HD
ATOM     59  CZ  ARG A   1     -22.134  -5.427 -19.381  0.00  0.00    +0.342 C 
ATOM     60  NH2 ARG A   1     -23.191  -6.229 -19.383  0.00  0.00    -0.292 N 
ATOM     61 HH21 ARG A   1     -23.434  -6.772 -18.530  0.00  0.00    +0.255 HD
ATOM     62 HH22 ARG A   1     -23.777  -6.315 -20.238  0.00  0.00    +0.255 HD
ATOM     63  NH1 ARG A   1     -21.863  -4.727 -20.468  0.00  0.00    -0.292 N 
ATOM     64 HH11 ARG A   1     -21.052  -4.076 -20.478  0.00  0.00    +0.255 HD
ATOM     65 HH12 ARG A   1     -22.460  -4.827 -21.313  0.00  0.00    +0.255 HD
ENDBRANCH  56  57
ENDBRANCH  55  56
ENDBRANCH  54  55
ENDBRANCH  51  54
ENDBRANCH  47  51
ENDBRANCH  45  49
ENDBRANCH  41  45
ENDBRANCH  40  42
BRANCH  40  66
ATOM     66  CB  ILE A   3     -13.862   2.067 -20.416  0.00  0.00    +0.027 C 
ATOM     67  CG2 ILE A   3     -14.404   3.416 -20.900  0.00  0.00    +0.002 C 
BRANCH  66  68
ATOM     68  CG1 ILE A   3     -14.028   1.928 -18.899  0.00  0.00    +0.002 C 
ATOM     69  CD1 ILE A   3     -15.442   1.593 -18.435  0.00  0.00    +0.000 C 
ENDBRANCH  66  68
ENDBRANCH  40  66
ENDBRANCH  36  40
ENDBRANCH   1  38
BRANCH   1  70
ATOM     70  CB  SER A   4     -16.820   0.890 -25.333  0.00  0.00    +0.166 C 
BRANCH  70  71
ATOM     71  OG  SER A   4     -18.025   1.078 -24.609  0.00  0.00    -0.380 OA
ATOM     72  H   SER A   4     -18.260   2.040 -24.606  0.00  0.00    +0.211 HD
ENDBRANCH  70  71
ENDBRANCH   1  70
TORSDOF 29
REMARK  Name = ../refined-set-2016/4yml/4yml_pocket.pdb
REMARK  203 active torsions:
REMARK  status: ('A' for Active; 'I' for Inactive)
REMARK    1  A    between atoms: _1  and  _3
REMARK    2  A    between atoms: _3  and  _4
REMARK    3  A    between atoms: _6  and  _8
REMARK    4  A    between atoms: _8  and  _9
REMARK    5  A    between atoms: _12  and  _14
REMARK    6  A    between atoms: _14  and  _15
REMARK    7  A    between atoms: _14  and  _17
REMARK    8  A    between atoms: _17  and  _18
REMARK    9  A    between atoms: _18  and  _19
REMARK   10  A    between atoms: _21  and  _23
REMARK   11  A    between atoms: _23  and  _24
REMARK   12  A    between atoms: _23  and  _26
REMARK   13  A    between atoms: _26  and  _27
REMARK   14  A    between atoms: _27  and  _28
REMARK   15  A    between atoms: _31  and  _33
REMARK   16  A    between atoms: _33  and  _34
REMARK   17  A    between atoms: _33  and  _36
REMARK   18  A    between atoms: _36  and  _37
REMARK   19  A    between atoms: _39  and  _41
REMARK   20  A    between atoms: _41  and  _42
REMARK   21  A    between atoms: _44  and  _46
REMARK   22  A    between atoms: _46  and  _47
REMARK   23  A    between atoms: _46  and  _49
REMARK   24  A    between atoms: _49  and  _50
REMARK   25  A    between atoms: _53  and  _55
REMARK   26  A    between atoms: _55  and  _56
REMARK   27  A    between atoms: _58  and  _60
REMARK   28  A    between atoms: _60  and  _61
REMARK   29  A    between atoms: _60  and  _63
REMARK   30  A    between atoms: _63  and  _64
REMARK   31  A    between atoms: _64  and  _65
REMARK   32  A    between atoms: _65  and  _66
REMARK   33  A    between atoms: _66  and  _67
REMARK   34  A    between atoms: _71  and  _73
REMARK   35  A    between atoms: _73  and  _74
REMARK   36  A    between atoms: _73  and  _76
REMARK   37  A    between atoms: _76  and  _77
REMARK   38  A    between atoms: _82  and  _84
REMARK   39  A    between atoms: _84  and  _85
REMARK   40  A    between atoms: _84  and  _87
REMARK   41  A    between atoms: _87  and  _88
REMARK   42  A    between atoms: _91  and  _93
REMARK   43  A    between atoms: _93  and  _94
REMARK   44  A    between atoms: _96  and  _98
REMARK   45  A    between atoms: _98  and  _99
REMARK   46  A    between atoms: _98  and  _101
REMARK   47  A    between atoms: _101  and  _102
REMARK   48  A    between atoms: _104  and  _106
REMARK   49  A    between atoms: _106  and  _107
REMARK   50  A    between atoms: _110  and  _112
REMARK   51  A    between atoms: _112  and  _113
REMARK   52  A    between atoms: _115  and  _117
REMARK   53  A    between atoms: _117  and  _118
REMARK   54  A    between atoms: _120  and  _122
REMARK   55  A    between atoms: _122  and  _123
REMARK   56  A    between atoms: _122  and  _125
REMARK   57  A    between atoms: _125  and  _126
REMARK   58  A    between atoms: _129  and  _131
REMARK   59  A    between atoms: _131  and  _132
REMARK   60  A    between atoms: _131  and  _134
REMARK   61  A    between atoms: _134  and  _135
REMARK   62  A    between atoms: _140  and  _142
REMARK   63  A    between atoms: _142  and  _143
REMARK   64  A    between atoms: _142  and  _145
REMARK   65  A    between atoms: _148  and  _150
REMARK   66  A    between atoms: _150  and  _151
REMARK   67  A    between atoms: _150  and  _153
REMARK   68  A    between atoms: _153  and  _154
REMARK   69  A    between atoms: _156  and  _158
REMARK   70  A    between atoms: _158  and  _159
REMARK   71  A    between atoms: _161  and  _163
REMARK   72  A    between atoms: _163  and  _164
REMARK   73  A    between atoms: _163  and  _166
REMARK   74  A    between atoms: _166  and  _167
REMARK   75  A    between atoms: _170  and  _172
REMARK   76  A    between atoms: _172  and  _173
REMARK   77  A    between atoms: _176  and  _178
REMARK   78  A    between atoms: _178  and  _179
REMARK   79  A    between atoms: _178  and  _181
REMARK   80  A    between atoms: _181  and  _182
REMARK   81  A    between atoms: _188  and  _190
REMARK   82  A    between atoms: _190  and  _191
REMARK   83  A    between atoms: _190  and  _193
REMARK   84  A    between atoms: _193  and  _194
REMARK   85  A    between atoms: _197  and  _199
REMARK   86  A    between atoms: _199  and  _200
REMARK   87  A    between atoms: _199  and  _202
REMARK   88  A    between atoms: _202  and  _203
REMARK   89  A    between atoms: _208  and  _210
REMARK   90  A    between atoms: _210  and  _211
REMARK   91  A    between atoms: _213  and  _215
REMARK   92  A    between atoms: _215  and  _216
REMARK   93  A    between atoms: _215  and  _218
REMARK   94  A    between atoms: _218  and  _219
REMARK   95  A    between atoms: _222  and  _224
REMARK   96  A    between atoms: _224  and  _225
REMARK   97  A    between atoms: _224  and  _227
REMARK   98  A    between atoms: _227  and  _228
REMARK   99  A    between atoms: _231  and  _233
REMARK  100  A    between atoms: _233  and  _234
REMARK  101  A    between atoms: _237  and  _239
REMARK  102  A    between atoms: _239  and  _240
REMARK  103  A    between atoms: _239  and  _242
REMARK  104  A    between atoms: _245  and  _247
REMARK  105  A    between atoms: _247  and  _248
REMARK  106  A    between atoms: _247  and  _250
REMARK  107  A    between atoms: _250  and  _251
REMARK  108  A    between atoms: _251  and  _252
REMARK  109  A    between atoms: _255  and  _257
REMARK  110  A    between atoms: _257  and  _258
REMARK  111  A    between atoms: _257  and  _260
REMARK  112  A    between atoms: _260  and  _261
REMARK  113  A    between atoms: _261  and  _262
REMARK  114  A    between atoms: _264  and  _266
REMARK  115  A    between atoms: _266  and  _267
REMARK  116  A    between atoms: _266  and  _269
REMARK  117  A    between atoms: _269  and  _270
REMARK  118  A    between atoms: _270  and  _271
REMARK  119  A    between atoms: _274  and  _276
REMARK  120  A    between atoms: _276  and  _277
REMARK  121  A    between atoms: _280  and  _282
REMARK  122  A    between atoms: _282  and  _283
REMARK  123  A    between atoms: _282  and  _285
REMARK  124  A    between atoms: _285  and  _286
REMARK  125  A    between atoms: _286  and  _287
REMARK  126  A    between atoms: _287  and  _288
REMARK  127  A    between atoms: _297  and  _299
REMARK  128  A    between atoms: _299  and  _300
REMARK  129  A    between atoms: _303  and  _305
REMARK  130  A    between atoms: _305  and  _306
REMARK  131  A    between atoms: _305  and  _308
REMARK  132  A    between atoms: _308  and  _309
REMARK  133  A    between atoms: _312  and  _314
REMARK  134  A    between atoms: _314  and  _315
REMARK  135  A    between atoms: _314  and  _317
REMARK  136  A    between atoms: _317  and  _318
REMARK  137  A    between atoms: _320  and  _322
REMARK  138  A    between atoms: _322  and  _323
REMARK  139  A    between atoms: _322  and  _325
REMARK  140  A    between atoms: _325  and  _326
REMARK  141  A    between atoms: _329  and  _331
REMARK  142  A    between atoms: _331  and  _332
REMARK  143  A    between atoms: _331  and  _334
REMARK  144  A    between atoms: _337  and  _339
REMARK  145  A    between atoms: _339  and  _340
REMARK  146  A    between atoms: _343  and  _345
REMARK  147  A    between atoms: _345  and  _346
REMARK  148  A    between atoms: _345  and  _348
REMARK  149  A    between atoms: _348  and  _349
REMARK  150  A    between atoms: _352  and  _354
REMARK  151  A    between atoms: _354  and  _355
REMARK  152  A    between atoms: _354  and  _357
REMARK  153  A    between atoms: _357  and  _358
REMARK  154  A    between atoms: _358  and  _359
REMARK  155  A    between atoms: _364  and  _366
REMARK  156  A    between atoms: _366  and  _367
REMARK  157  A    between atoms: _366  and  _369
REMARK  158  A    between atoms: _369  and  _370
REMARK  159  A    between atoms: _372  and  _374
REMARK  160  A    between atoms: _374  and  _375
REMARK  161  A    between atoms: _374  and  _377
REMARK  162  A    between atoms: _377  and  _378
REMARK  163  A    between atoms: _383  and  _385
REMARK  164  A    between atoms: _385  and  _386
REMARK  165  A    between atoms: _385  and  _388
REMARK  166  A    between atoms: _388  and  _389
REMARK  167  A    between atoms: _391  and  _393
REMARK  168  A    between atoms: _393  and  _394
REMARK  169  A    between atoms: _393  and  _396
REMARK  170  A    between atoms: _396  and  _397
REMARK  171  A    between atoms: _403  and  _405
REMARK  172  A    between atoms: _405  and  _406
REMARK  173  A    between atoms: _405  and  _408
REMARK  174  A    between atoms: _408  and  _409
REMARK  175  A    between atoms: _412  and  _414
REMARK  176  A    between atoms: _414  and  _415
REMARK  177  A    between atoms: _414  and  _417
REMARK  178  A    between atoms: _417  and  _418
REMARK  179  A    between atoms: _421  and  _423
REMARK  180  A    between atoms: _423  and  _424
REMARK  181  A    between atoms: _427  and  _429
REMARK  182  A    between atoms: _429  and  _430
REMARK  183  A    between atoms: _429  and  _432
REMARK  184  A    between atoms: _432  and  _433
REMARK  185  A    between atoms: _436  and  _438
REMARK  186  A    between atoms: _438  and  _439
REMARK  187  A    between atoms: _438  and  _441
REMARK  188  A    between atoms: _444  and  _446
REMARK  189  A    between atoms: _446  and  _447
REMARK  190  A    between atoms: _450  and  _452
REMARK  191  A    between atoms: _452  and  _453
REMARK  192  A    between atoms: _452  and  _455
REMARK  193  A    between atoms: _455  and  _456
REMARK  194  A    between atoms: _462  and  _464
REMARK  195  A    between atoms: _464  and  _465
REMARK  196  A    between atoms: _464  and  _467
REMARK  197  A    between atoms: _467  and  _468
REMARK  198  A    between atoms: _473  and  _474
REMARK  199  A    between atoms: _476  and  _478
REMARK  200  A    between atoms: _478  and  _479
REMARK  201  A    between atoms: _478  and  _481
REMARK  202  A    between atoms: _481  and  _482
REMARK  203  A    between atoms: _486  and  _487
REMARK                            x       y       z     vdW  Elec       q    Type
REMARK                         _______ _______ _______ _____ _____    ______ ____
ROOT
ATOM      1  CA  SER A   2     -20.183   8.160 -26.780  0.00  0.00    +0.178 C 
ENDROOT
BRANCH   1   3
ATOM      2  C   GLN A   1     -19.356  10.053 -28.078  0.00  0.00    +0.238 C 
ATOM      3  N   SER A   2     -20.176   9.584 -27.126  0.00  0.00    -0.295 N 
ATOM      4  H   SER A   2     -20.814  10.238 -26.628  0.00  0.00    +0.150 HD
ATOM      5  O   GLN A   1     -18.739   9.320 -28.855  0.00  0.00    -0.274 OA
BRANCH   2   6
ATOM      6  CA  GLN A   1     -19.198  11.558 -28.201  0.00  0.00    +0.145 C 
BRANCH   6   7
ATOM      7  N   GLN A   1     -19.941  12.289 -27.195  0.00  0.00    -0.238 NA
ATOM      8  H   GLN A   1     -19.501  12.448 -26.266  0.00  0.00    +0.142 HD
ENDBRANCH   6   7
BRANCH   6   9
ATOM      9  CB  GLN A   1     -17.699  11.882 -28.091  0.00  0.00    +0.036 C 
BRANCH   9  10
ATOM     10  CG  GLN A   1     -17.358  13.358 -28.072  0.00  0.00    +0.087 C 
BRANCH  10  11
ATOM     11  CD  GLN A   1     -18.056  14.147 -29.161  0.00  0.00    +0.219 C 
ATOM     12  NE2 GLN A   1     -18.628  15.291 -28.779  0.00  0.00    -0.329 N 
ATOM     13 HE21 GLN A   1     -18.573  15.594 -27.786  0.00  0.00    +0.145 HD
ATOM     14 HE22 GLN A   1     -19.129  15.880 -29.475  0.00  0.00    +0.145 HD
ATOM     15  OE1 GLN A   1     -18.091  13.737 -30.334  0.00  0.00    -0.275 OA
ENDBRANCH  10  11
ENDBRANCH   9  10
ENDBRANCH   6   9
ENDBRANCH   2   6
ENDBRANCH   1   3
BRANCH   1  16
ATOM     16  C   SER A   2     -20.592   7.244 -27.926  0.00  0.00    +0.243 C 
ATOM     17  O   SER A   2     -20.122   6.120 -27.991  0.00  0.00    -0.273 OA
ATOM     18  N   HIS A   3     -21.501   7.706 -28.776  0.00  0.00    -0.298 N 
ATOM     19  H   HIS A   3     -21.908   8.648 -28.608  0.00  0.00    +0.150 HD
BRANCH  18  20
ATOM     20  CA  HIS A   3     -21.954   6.942 -29.943  0.00  0.00    +0.143 C 
BRANCH  20  21
ATOM     21  C   HIS A   3     -20.840   6.704 -30.982  0.00  0.00    +0.227 C 
ATOM     22  O   HIS A   3     -20.756   5.621 -31.578  0.00  0.00    -0.286 OA
ENDBRANCH  20  21
BRANCH  20  23
ATOM     23  CB  HIS A   3     -23.214   7.553 -30.566  0.00  0.00    +0.075 C 
BRANCH  23  24
ATOM     24  CG  HIS A   3     -23.025   8.925 -31.141  0.00  0.00    +0.082 A 
ATOM     25  ND1 HIS A   3     -22.672  10.023 -30.381  0.00  0.00    -0.227 NA
ATOM     26  CE1 HIS A   3     -22.605  11.092 -31.158  0.00  0.00    +0.199 A 
ATOM     27  NE2 HIS A   3     -22.900  10.729 -32.395  0.00  0.00    -0.221 NA
ATOM     28  CD2 HIS A   3     -23.166   9.379 -32.413  0.00  0.00    +0.115 A 
ENDBRANCH  23  24
ENDBRANCH  20  23
ENDBRANCH  18  20
ENDBRANCH   1  16
BRANCH   1  29
ATOM     29  CB  SER A   2     -21.080   7.895 -25.554  0.00  0.00    +0.166 C 
BRANCH  29  30
ATOM     30  OG  SER A   2     -22.437   8.063 -25.894  0.00  0.00    -0.380 OA
ATOM     31  H   SER A   2     -22.999   7.890 -25.098  0.00  0.00    +0.211 HD
ENDBRANCH  29  30
ENDBRANCH   1  29
TORSDOF 13
REMARK  Name = ../refined-set-2016/4yml/4yml_pocket.pdb
REMARK  203 active torsions:
REMARK  status: ('A' for Active; 'I' for Inactive)
REMARK    1  A    between atoms: _1  and  _3
REMARK    2  A    between atoms: _3  and  _4
REMARK    3  A    between atoms: _6  and  _8
REMARK    4  A    between atoms: _8  and  _9
REMARK    5  A    between atoms: _12  and  _14
REMARK    6  A    between atoms: _14  and  _15
REMARK    7  A    between atoms: _14  and  _17
REMARK    8  A    between atoms: _17  and  _18
REMARK    9  A    between atoms: _18  and  _19
REMARK   10  A    between atoms: _21  and  _23
REMARK   11  A    between atoms: _23  and  _24
REMARK   12  A    between atoms: _23  and  _26
REMARK   13  A    between atoms: _26  and  _27
REMARK   14  A    between atoms: _27  and  _28
REMARK   15  A    between atoms: _31  and  _33
REMARK   16  A    between atoms: _33  and  _34
REMARK   17  A    between atoms: _33  and  _36
REMARK   18  A    between atoms: _36  and  _37
REMARK   19  A    between atoms: _39  and  _41
REMARK   20  A    between atoms: _41  and  _42
REMARK   21  A    between atoms: _44  and  _46
REMARK   22  A    between atoms: _46  and  _47
REMARK   23  A    between atoms: _46  and  _49
REMARK   24  A    between atoms: _49  and  _50
REMARK   25  A    between atoms: _53  and  _55
REMARK   26  A    between atoms: _55  and  _56
REMARK   27  A    between atoms: _58  and  _60
REMARK   28  A    between atoms: _60  and  _61
REMARK   29  A    between atoms: _60  and  _63
REMARK   30  A    between atoms: _63  and  _64
REMARK   31  A    between atoms: _64  and  _65
REMARK   32  A    between atoms: _65  and  _66
REMARK   33  A    between atoms: _66  and  _67
REMARK   34  A    between atoms: _71  and  _73
REMARK   35  A    between atoms: _73  and  _74
REMARK   36  A    between atoms: _73  and  _76
REMARK   37  A    between atoms: _76  and  _77
REMARK   38  A    between atoms: _82  and  _84
REMARK   39  A    between atoms: _84  and  _85
REMARK   40  A    between atoms: _84  and  _87
REMARK   41  A    between atoms: _87  and  _88
REMARK   42  A    between atoms: _91  and  _93
REMARK   43  A    between atoms: _93  and  _94
REMARK   44  A    between atoms: _96  and  _98
REMARK   45  A    between atoms: _98  and  _99
REMARK   46  A    between atoms: _98  and  _101
REMARK   47  A    between atoms: _101  and  _102
REMARK   48  A    between atoms: _104  and  _106
REMARK   49  A    between atoms: _106  and  _107
REMARK   50  A    between atoms: _110  and  _112
REMARK   51  A    between atoms: _112  and  _113
REMARK   52  A    between atoms: _115  and  _117
REMARK   53  A    between atoms: _117  and  _118
REMARK   54  A    between atoms: _120  and  _122
REMARK   55  A    between atoms: _122  and  _123
REMARK   56  A    between atoms: _122  and  _125
REMARK   57  A    between atoms: _125  and  _126
REMARK   58  A    between atoms: _129  and  _131
REMARK   59  A    between atoms: _131  and  _132
REMARK   60  A    between atoms: _131  and  _134
REMARK   61  A    between atoms: _134  and  _135
REMARK   62  A    between atoms: _140  and  _142
REMARK   63  A    between atoms: _142  and  _143
REMARK   64  A    between atoms: _142  and  _145
REMARK   65  A    between atoms: _148  and  _150
REMARK   66  A    between atoms: _150  and  _151
REMARK   67  A    between atoms: _150  and  _153
REMARK   68  A    between atoms: _153  and  _154
REMARK   69  A    between atoms: _156  and  _158
REMARK   70  A    between atoms: _158  and  _159
REMARK   71  A    between atoms: _161  and  _163
REMARK   72  A    between atoms: _163  and  _164
REMARK   73  A    between atoms: _163  and  _166
REMARK   74  A    between atoms: _166  and  _167
REMARK   75  A    between atoms: _170  and  _172
REMARK   76  A    between atoms: _172  and  _173
REMARK   77  A    between atoms: _176  and  _178
REMARK   78  A    between atoms: _178  and  _179
REMARK   79  A    between atoms: _178  and  _181
REMARK   80  A    between atoms: _181  and  _182
REMARK   81  A    between atoms: _188  and  _190
REMARK   82  A    between atoms: _190  and  _191
REMARK   83  A    between atoms: _190  and  _193
REMARK   84  A    between atoms: _193  and  _194
REMARK   85  A    between atoms: _197  and  _199
REMARK   86  A    between atoms: _199  and  _200
REMARK   87  A    between atoms: _199  and  _202
REMARK   88  A    between atoms: _202  and  _203
REMARK   89  A    between atoms: _208  and  _210
REMARK   90  A    between atoms: _210  and  _211
REMARK   91  A    between atoms: _213  and  _215
REMARK   92  A    between atoms: _215  and  _216
REMARK   93  A    between atoms: _215  and  _218
REMARK   94  A    between atoms: _218  and  _219
REMARK   95  A    between atoms: _222  and  _224
REMARK   96  A    between atoms: _224  and  _225
REMARK   97  A    between atoms: _224  and  _227
REMARK   98  A    between atoms: _227  and  _228
REMARK   99  A    between atoms: _231  and  _233
REMARK  100  A    between atoms: _233  and  _234
REMARK  101  A    between atoms: _237  and  _239
REMARK  102  A    between atoms: _239  and  _240
REMARK  103  A    between atoms: _239  and  _242
REMARK  104  A    between atoms: _245  and  _247
REMARK  105  A    between atoms: _247  and  _248
REMARK  106  A    between atoms: _247  and  _250
REMARK  107  A    between atoms: _250  and  _251
REMARK  108  A    between atoms: _251  and  _252
REMARK  109  A    between atoms: _255  and  _257
REMARK  110  A    between atoms: _257  and  _258
REMARK  111  A    between atoms: _257  and  _260
REMARK  112  A    between atoms: _260  and  _261
REMARK  113  A    between atoms: _261  and  _262
REMARK  114  A    between atoms: _264  and  _266
REMARK  115  A    between atoms: _266  and  _267
REMARK  116  A    between atoms: _266  and  _269
REMARK  117  A    between atoms: _269  and  _270
REMARK  118  A    between atoms: _270  and  _271
REMARK  119  A    between atoms: _274  and  _276
REMARK  120  A    between atoms: _276  and  _277
REMARK  121  A    between atoms: _280  and  _282
REMARK  122  A    between atoms: _282  and  _283
REMARK  123  A    between atoms: _282  and  _285
REMARK  124  A    between atoms: _285  and  _286
REMARK  125  A    between atoms: _286  and  _287
REMARK  126  A    between atoms: _287  and  _288
REMARK  127  A    between atoms: _297  and  _299
REMARK  128  A    between atoms: _299  and  _300
REMARK  129  A    between atoms: _303  and  _305
REMARK  130  A    between atoms: _305  and  _306
REMARK  131  A    between atoms: _305  and  _308
REMARK  132  A    between atoms: _308  and  _309
REMARK  133  A    between atoms: _312  and  _314
REMARK  134  A    between atoms: _314  and  _315
REMARK  135  A    between atoms: _314  and  _317
REMARK  136  A    between atoms: _317  and  _318
REMARK  137  A    between atoms: _320  and  _322
REMARK  138  A    between atoms: _322  and  _323
REMARK  139  A    between atoms: _322  and  _325
REMARK  140  A    between atoms: _325  and  _326
REMARK  141  A    between atoms: _329  and  _331
REMARK  142  A    between atoms: _331  and  _332
REMARK  143  A    between atoms: _331  and  _334
REMARK  144  A    between atoms: _337  and  _339
REMARK  145  A    between atoms: _339  and  _340
REMARK  146  A    between atoms: _343  and  _345
REMARK  147  A    between atoms: _345  and  _346
REMARK  148  A    between atoms: _345  and  _348
REMARK  149  A    between atoms: _348  and  _349
REMARK  150  A    between atoms: _352  and  _354
REMARK  151  A    between atoms: _354  and  _355
REMARK  152  A    between atoms: _354  and  _357
REMARK  153  A    between atoms: _357  and  _358
REMARK  154  A    between atoms: _358  and  _359
REMARK  155  A    between atoms: _364  and  _366
REMARK  156  A    between atoms: _366  and  _367
REMARK  157  A    between atoms: _366  and  _369
REMARK  158  A    between atoms: _369  and  _370
REMARK  159  A    between atoms: _372  and  _374
REMARK  160  A    between atoms: _374  and  _375
REMARK  161  A    between atoms: _374  and  _377
REMARK  162  A    between atoms: _377  and  _378
REMARK  163  A    between atoms: _383  and  _385
REMARK  164  A    between atoms: _385  and  _386
REMARK  165  A    between atoms: _385  and  _388
REMARK  166  A    between atoms: _388  and  _389
REMARK  167  A    between atoms: _391  and  _393
REMARK  168  A    between atoms: _393  and  _394
REMARK  169  A    between atoms: _393  and  _396
REMARK  170  A    between atoms: _396  and  _397
REMARK  171  A    between atoms: _403  and  _405
REMARK  172  A    between atoms: _405  and  _406
REMARK  173  A    between atoms: _405  and  _408
REMARK  174  A    between atoms: _408  and  _409
REMARK  175  A    between atoms: _412  and  _414
REMARK  176  A    between atoms: _414  and  _415
REMARK  177  A    between atoms: _414  and  _417
REMARK  178  A    between atoms: _417  and  _418
REMARK  179  A    between atoms: _421  and  _423
REMARK  180  A    between atoms: _423  and  _424
REMARK  181  A    between atoms: _427  and  _429
REMARK  182  A    between atoms: _429  and  _430
REMARK  183  A    between atoms: _429  and  _432
REMARK  184  A    between atoms: _432  and  _433
REMARK  185  A    between atoms: _436  and  _438
REMARK  186  A    between atoms: _438  and  _439
REMARK  187  A    between atoms: _438  and  _441
REMARK  188  A    between atoms: _444  and  _446
REMARK  189  A    between atoms: _446  and  _447
REMARK  190  A    between atoms: _450  and  _452
REMARK  191  A    between atoms: _452  and  _453
REMARK  192  A    between atoms: _452  and  _455
REMARK  193  A    between atoms: _455  and  _456
REMARK  194  A    between atoms: _462  and  _464
REMARK  195  A    between atoms: _464  and  _465
REMARK  196  A    between atoms: _464  and  _467
REMARK  197  A    between atoms: _467  and  _468
REMARK  198  A    between atoms: _473  and  _474
REMARK  199  A    between atoms: _476  and  _478
REMARK  200  A    between atoms: _478  and  _479
REMARK  201  A    between atoms: _478  and  _481
REMARK  202  A    between atoms: _481  and  _482
REMARK  203  A    between atoms: _486  and  _487
REMARK                            x       y       z     vdW  Elec       q    Type
REMARK                         _______ _______ _______ _____ _____    ______ ____
ROOT
ATOM      1  CA  PHE A   2     -18.445   3.064 -28.881  0.00  0.00    +0.153 C 
ENDROOT
BRANCH   1   3
ATOM      2  C   SER A   1     -16.754   4.737 -29.349  0.00  0.00    +0.241 C 
ATOM      3  N   PHE A   2     -18.016   4.452 -29.043  0.00  0.00    -0.297 N 
ATOM      4  H   PHE A   2     -18.703   5.222 -28.918  0.00  0.00    +0.150 HD
ATOM      5  O   SER A   1     -15.929   3.859 -29.601  0.00  0.00    -0.274 OA
BRANCH   2   6
ATOM      6  CA  SER A   1     -16.385   6.231 -29.446  0.00  0.00    +0.174 C 
BRANCH   6   7
ATOM      7  N   SER A   1     -17.388   6.967 -30.194  0.00  0.00    -0.236 NA
ATOM      8  H   SER A   1     -17.890   7.742 -29.715  0.00  0.00    +0.142 HD
ENDBRANCH   6   7
BRANCH   6   9
ATOM      9  CB  SER A   1     -16.221   6.885 -28.069  0.00  0.00    +0.163 C 
BRANCH   9  10
ATOM     10  OG  SER A   1     -15.276   6.237 -27.234  0.00  0.00    -0.380 OA
ATOM     11  H   SER A   1     -15.559   5.300 -27.082  0.00  0.00    +0.211 HD
ENDBRANCH   9  10
ENDBRANCH   6   9
ENDBRANCH   2   6
ENDBRANCH   1   3
BRANCH   1  12
ATOM     12  C   PHE A   2     -18.078   2.225 -30.103  0.00  0.00    +0.241 C 
ATOM     13  O   PHE A   2     -17.436   1.183 -29.986  0.00  0.00    -0.273 OA
ATOM     14  N   ASP A   3     -18.487   2.701 -31.271  0.00  0.00    -0.298 N 
ATOM     15  H   ASP A   3     -19.015   3.596 -31.296  0.00  0.00    +0.150 HD
BRANCH  14  16
ATOM     16  CA  ASP A   3     -18.215   2.001 -32.520  0.00  0.00    +0.148 C 
BRANCH  16  17
ATOM     17  C   ASP A   3     -16.716   1.778 -32.679  0.00  0.00    +0.227 C 
ATOM     18  O   ASP A   3     -16.270   0.666 -32.977  0.00  0.00    -0.286 OA
ENDBRANCH  16  17
BRANCH  16  19
ATOM     19  CB  ASP A   3     -18.748   2.817 -33.696  0.00  0.00    +0.142 C 
BRANCH  19  20
ATOM     20  CG  ASP A   3     -20.229   3.138 -33.558  0.00  0.00    +0.367 C 
ATOM     21  OD2 ASP A   3     -20.940   2.430 -32.803  0.00  0.00    -0.246 OA
ATOM     22  OD1 ASP A   3     -20.679   4.101 -34.204  0.00  0.00    -0.246 OA
ENDBRANCH  19  20
ENDBRANCH  16  19
ENDBRANCH  14  16
ENDBRANCH   1  12
BRANCH   1  23
ATOM     23  CB  PHE A   2     -19.955   2.982 -28.627  0.00  0.00    +0.055 C 
BRANCH  23  24
ATOM     24  CG  PHE A   2     -20.439   1.581 -28.435  0.00  0.00    -0.020 A 
ATOM     25  CD2 PHE A   2     -20.225   0.931 -27.222  0.00  0.00    -0.004 A 
ATOM     26  CE2 PHE A   2     -20.632  -0.371 -27.045  0.00  0.00    -0.000 A 
ATOM     27  CZ  PHE A   2     -21.256  -1.048 -28.074  0.00  0.00    -0.000 A 
ATOM     28  CE1 PHE A   2     -21.462  -0.429 -29.293  0.00  0.00    -0.000 A 
ATOM     29  CD1 PHE A   2     -21.046   0.882 -29.478  0.00  0.00    -0.004 A 
ENDBRANCH  23  24
ENDBRANCH   1  23
TORSDOF 12
REMARK  Name = ../refined-set-2016/4yml/4yml_pocket.pdb
REMARK  203 active torsions:
REMARK  status: ('A' for Active; 'I' for Inactive)
REMARK    1  A    between atoms: _1  and  _3
REMARK    2  A    between atoms: _3  and  _4
REMARK    3  A    between atoms: _6  and  _8
REMARK    4  A    between atoms: _8  and  _9
REMARK    5  A    between atoms: _12  and  _14
REMARK    6  A    between atoms: _14  and  _15
REMARK    7  A    between atoms: _14  and  _17
REMARK    8  A    between atoms: _17  and  _18
REMARK    9  A    between atoms: _18  and  _19
REMARK   10  A    between atoms: _21  and  _23
REMARK   11  A    between atoms: _23  and  _24
REMARK   12  A    between atoms: _23  and  _26
REMARK   13  A    between atoms: _26  and  _27
REMARK   14  A    between atoms: _27  and  _28
REMARK   15  A    between atoms: _31  and  _33
REMARK   16  A    between atoms: _33  and  _34
REMARK   17  A    between atoms: _33  and  _36
REMARK   18  A    between atoms: _36  and  _37
REMARK   19  A    between atoms: _39  and  _41
REMARK   20  A    between atoms: _41  and  _42
REMARK   21  A    between atoms: _44  and  _46
REMARK   22  A    between atoms: _46  and  _47
REMARK   23  A    between atoms: _46  and  _49
REMARK   24  A    between atoms: _49  and  _50
REMARK   25  A    between atoms: _53  and  _55
REMARK   26  A    between atoms: _55  and  _56
REMARK   27  A    between atoms: _58  and  _60
REMARK   28  A    between atoms: _60  and  _61
REMARK   29  A    between atoms: _60  and  _63
REMARK   30  A    between atoms: _63  and  _64
REMARK   31  A    between atoms: _64  and  _65
REMARK   32  A    between atoms: _65  and  _66
REMARK   33  A    between atoms: _66  and  _67
REMARK   34  A    between atoms: _71  and  _73
REMARK   35  A    between atoms: _73  and  _74
REMARK   36  A    between atoms: _73  and  _76
REMARK   37  A    between atoms: _76  and  _77
REMARK   38  A    between atoms: _82  and  _84
REMARK   39  A    between atoms: _84  and  _85
REMARK   40  A    between atoms: _84  and  _87
REMARK   41  A    between atoms: _87  and  _88
REMARK   42  A    between atoms: _91  and  _93
REMARK   43  A    between atoms: _93  and  _94
REMARK   44  A    between atoms: _96  and  _98
REMARK   45  A    between atoms: _98  and  _99
REMARK   46  A    between atoms: _98  and  _101
REMARK   47  A    between atoms: _101  and  _102
REMARK   48  A    between atoms: _104  and  _106
REMARK   49  A    between atoms: _106  and  _107
REMARK   50  A    between atoms: _110  and  _112
REMARK   51  A    between atoms: _112  and  _113
REMARK   52  A    between atoms: _115  and  _117
REMARK   53  A    between atoms: _117  and  _118
REMARK   54  A    between atoms: _120  and  _122
REMARK   55  A    between atoms: _122  and  _123
REMARK   56  A    between atoms: _122  and  _125
REMARK   57  A    between atoms: _125  and  _126
REMARK   58  A    between atoms: _129  and  _131
REMARK   59  A    between atoms: _131  and  _132
REMARK   60  A    between atoms: _131  and  _134
REMARK   61  A    between atoms: _134  and  _135
REMARK   62  A    between atoms: _140  and  _142
REMARK   63  A    between atoms: _142  and  _143
REMARK   64  A    between atoms: _142  and  _145
REMARK   65  A    between atoms: _148  and  _150
REMARK   66  A    between atoms: _150  and  _151
REMARK   67  A    between atoms: _150  and  _153
REMARK   68  A    between atoms: _153  and  _154
REMARK   69  A    between atoms: _156  and  _158
REMARK   70  A    between atoms: _158  and  _159
REMARK   71  A    between atoms: _161  and  _163
REMARK   72  A    between atoms: _163  and  _164
REMARK   73  A    between atoms: _163  and  _166
REMARK   74  A    between atoms: _166  and  _167
REMARK   75  A    between atoms: _170  and  _172
REMARK   76  A    between atoms: _172  and  _173
REMARK   77  A    between atoms: _176  and  _178
REMARK   78  A    between atoms: _178  and  _179
REMARK   79  A    between atoms: _178  and  _181
REMARK   80  A    between atoms: _181  and  _182
REMARK   81  A    between atoms: _188  and  _190
REMARK   82  A    between atoms: _190  and  _191
REMARK   83  A    between atoms: _190  and  _193
REMARK   84  A    between atoms: _193  and  _194
REMARK   85  A    between atoms: _197  and  _199
REMARK   86  A    between atoms: _199  and  _200
REMARK   87  A    between atoms: _199  and  _202
REMARK   88  A    between atoms: _202  and  _203
REMARK   89  A    between atoms: _208  and  _210
REMARK   90  A    between atoms: _210  and  _211
REMARK   91  A    between atoms: _213  and  _215
REMARK   92  A    between atoms: _215  and  _216
REMARK   93  A    between atoms: _215  and  _218
REMARK   94  A    between atoms: _218  and  _219
REMARK   95  A    between atoms: _222  and  _224
REMARK   96  A    between atoms: _224  and  _225
REMARK   97  A    between atoms: _224  and  _227
REMARK   98  A    between atoms: _227  and  _228
REMARK   99  A    between atoms: _231  and  _233
REMARK  100  A    between atoms: _233  and  _234
REMARK  101  A    between atoms: _237  and  _239
REMARK  102  A    between atoms: _239  and  _240
REMARK  103  A    between atoms: _239  and  _242
REMARK  104  A    between atoms: _245  and  _247
REMARK  105  A    between atoms: _247  and  _248
REMARK  106  A    between atoms: _247  and  _250
REMARK  107  A    between atoms: _250  and  _251
REMARK  108  A    between atoms: _251  and  _252
REMARK  109  A    between atoms: _255  and  _257
REMARK  110  A    between atoms: _257  and  _258
REMARK  111  A    between atoms: _257  and  _260
REMARK  112  A    between atoms: _260  and  _261
REMARK  113  A    between atoms: _261  and  _262
REMARK  114  A    between atoms: _264  and  _266
REMARK  115  A    between atoms: _266  and  _267
REMARK  116  A    between atoms: _266  and  _269
REMARK  117  A    between atoms: _269  and  _270
REMARK  118  A    between atoms: _270  and  _271
REMARK  119  A    between atoms: _274  and  _276
REMARK  120  A    between atoms: _276  and  _277
REMARK  121  A    between atoms: _280  and  _282
REMARK  122  A    between atoms: _282  and  _283
REMARK  123  A    between atoms: _282  and  _285
REMARK  124  A    between atoms: _285  and  _286
REMARK  125  A    between atoms: _286  and  _287
REMARK  126  A    between atoms: _287  and  _288
REMARK  127  A    between atoms: _297  and  _299
REMARK  128  A    between atoms: _299  and  _300
REMARK  129  A    between atoms: _303  and  _305
REMARK  130  A    between atoms: _305  and  _306
REMARK  131  A    between atoms: _305  and  _308
REMARK  132  A    between atoms: _308  and  _309
REMARK  133  A    between atoms: _312  and  _314
REMARK  134  A    between atoms: _314  and  _315
REMARK  135  A    between atoms: _314  and  _317
REMARK  136  A    between atoms: _317  and  _318
REMARK  137  A    between atoms: _320  and  _322
REMARK  138  A    between atoms: _322  and  _323
REMARK  139  A    between atoms: _322  and  _325
REMARK  140  A    between atoms: _325  and  _326
REMARK  141  A    between atoms: _329  and  _331
REMARK  142  A    between atoms: _331  and  _332
REMARK  143  A    between atoms: _331  and  _334
REMARK  144  A    between atoms: _337  and  _339
REMARK  145  A    between atoms: _339  and  _340
REMARK  146  A    between atoms: _343  and  _345
REMARK  147  A    between atoms: _345  and  _346
REMARK  148  A    between atoms: _345  and  _348
REMARK  149  A    between atoms: _348  and  _349
REMARK  150  A    between atoms: _352  and  _354
REMARK  151  A    between atoms: _354  and  _355
REMARK  152  A    between atoms: _354  and  _357
REMARK  153  A    between atoms: _357  and  _358
REMARK  154  A    between atoms: _358  and  _359
REMARK  155  A    between atoms: _364  and  _366
REMARK  156  A    between atoms: _366  and  _367
REMARK  157  A    between atoms: _366  and  _369
REMARK  158  A    between atoms: _369  and  _370
REMARK  159  A    between atoms: _372  and  _374
REMARK  160  A    between atoms: _374  and  _375
REMARK  161  A    between atoms: _374  and  _377
REMARK  162  A    between atoms: _377  and  _378
REMARK  163  A    between atoms: _383  and  _385
REMARK  164  A    between atoms: _385  and  _386
REMARK  165  A    between atoms: _385  and  _388
REMARK  166  A    between atoms: _388  and  _389
REMARK  167  A    between atoms: _391  and  _393
REMARK  168  A    between atoms: _393  and  _394
REMARK  169  A    between atoms: _393  and  _396
REMARK  170  A    between atoms: _396  and  _397
REMARK  171  A    between atoms: _403  and  _405
REMARK  172  A    between atoms: _405  and  _406
REMARK  173  A    between atoms: _405  and  _408
REMARK  174  A    between atoms: _408  and  _409
REMARK  175  A    between atoms: _412  and  _414
REMARK  176  A    between atoms: _414  and  _415
REMARK  177  A    between atoms: _414  and  _417
REMARK  178  A    between atoms: _417  and  _418
REMARK  179  A    between atoms: _421  and  _423
REMARK  180  A    between atoms: _423  and  _424
REMARK  181  A    between atoms: _427  and  _429
REMARK  182  A    between atoms: _429  and  _430
REMARK  183  A    between atoms: _429  and  _432
REMARK  184  A    between atoms: _432  and  _433
REMARK  185  A    between atoms: _436  and  _438
REMARK  186  A    between atoms: _438  and  _439
REMARK  187  A    between atoms: _438  and  _441
REMARK  188  A    between atoms: _444  and  _446
REMARK  189  A    between atoms: _446  and  _447
REMARK  190  A    between atoms: _450  and  _452
REMARK  191  A    between atoms: _452  and  _453
REMARK  192  A    between atoms: _452  and  _455
REMARK  193  A    between atoms: _455  and  _456
REMARK  194  A    between atoms: _462  and  _464
REMARK  195  A    between atoms: _464  and  _465
REMARK  196  A    between atoms: _464  and  _467
REMARK  197  A    between atoms: _467  and  _468
REMARK  198  A    between atoms: _473  and  _474
REMARK  199  A    between atoms: _476  and  _478
REMARK  200  A    between atoms: _478  and  _479
REMARK  201  A    between atoms: _478  and  _481
REMARK  202  A    between atoms: _481  and  _482
REMARK  203  A    between atoms: _486  and  _487
REMARK                            x       y       z     vdW  Elec       q    Type
REMARK                         _______ _______ _______ _____ _____    ______ ____
ROOT
ATOM      1  CA  LEU A   1     -15.954  -1.712 -28.867  0.00  0.00    +0.133 C 
ENDROOT
BRANCH   1   2
ATOM      2  N   LEU A   1     -15.325  -0.473 -29.341  0.00  0.00    -0.239 NA
ATOM      3  H   LEU A   1     -15.758   0.071 -30.114  0.00  0.00    +0.142 HD
ENDBRANCH   1   2
BRANCH   1   4
ATOM      4  C   LEU A   1     -14.956  -2.882 -28.942  0.00  0.00    +0.224 C 
ATOM      5  O   LEU A   1     -14.838  -3.664 -28.002  0.00  0.00    -0.287 OA
ENDBRANCH   1   4
BRANCH   1   6
ATOM      6  CB  LEU A   1     -17.220  -2.025 -29.659  0.00  0.00    +0.025 C 
BRANCH   6   7
ATOM      7  CG  LEU A   1     -17.938  -3.343 -29.337  0.00  0.00    +0.002 C 
ATOM      8  CD2 LEU A   1     -18.306  -3.452 -27.858  0.00  0.00    +0.000 C 
ATOM      9  CD1 LEU A   1     -19.162  -3.439 -30.225  0.00  0.00    +0.000 C 
ENDBRANCH   6   7
ENDBRANCH   1   6
TORSDOF 4
REMARK  Name = ../refined-set-2016/4yml/4yml_pocket.pdb
REMARK  203 active torsions:
REMARK  status: ('A' for Active; 'I' for Inactive)
REMARK    1  A    between atoms: _1  and  _3
REMARK    2  A    between atoms: _3  and  _4
REMARK    3  A    between atoms: _6  and  _8
REMARK    4  A    between atoms: _8  and  _9
REMARK    5  A    between atoms: _12  and  _14
REMARK    6  A    between atoms: _14  and  _15
REMARK    7  A    between atoms: _14  and  _17
REMARK    8  A    between atoms: _17  and  _18
REMARK    9  A    between atoms: _18  and  _19
REMARK   10  A    between atoms: _21  and  _23
REMARK   11  A    between atoms: _23  and  _24
REMARK   12  A    between atoms: _23  and  _26
REMARK   13  A    between atoms: _26  and  _27
REMARK   14  A    between atoms: _27  and  _28
REMARK   15  A    between atoms: _31  and  _33
REMARK   16  A    between atoms: _33  and  _34
REMARK   17  A    between atoms: _33  and  _36
REMARK   18  A    between atoms: _36  and  _37
REMARK   19  A    between atoms: _39  and  _41
REMARK   20  A    between atoms: _41  and  _42
REMARK   21  A    between atoms: _44  and  _46
REMARK   22  A    between atoms: _46  and  _47
REMARK   23  A    between atoms: _46  and  _49
REMARK   24  A    between atoms: _49  and  _50
REMARK   25  A    between atoms: _53  and  _55
REMARK   26  A    between atoms: _55  and  _56
REMARK   27  A    between atoms: _58  and  _60
REMARK   28  A    between atoms: _60  and  _61
REMARK   29  A    between atoms: _60  and  _63
REMARK   30  A    between atoms: _63  and  _64
REMARK   31  A    between atoms: _64  and  _65
REMARK   32  A    between atoms: _65  and  _66
REMARK   33  A    between atoms: _66  and  _67
REMARK   34  A    between atoms: _71  and  _73
REMARK   35  A    between atoms: _73  and  _74
REMARK   36  A    between atoms: _73  and  _76
REMARK   37  A    between atoms: _76  and  _77
REMARK   38  A    between atoms: _82  and  _84
REMARK   39  A    between atoms: _84  and  _85
REMARK   40  A    between atoms: _84  and  _87
REMARK   41  A    between atoms: _87  and  _88
REMARK   42  A    between atoms: _91  and  _93
REMARK   43  A    between atoms: _93  and  _94
REMARK   44  A    between atoms: _96  and  _98
REMARK   45  A    between atoms: _98  and  _99
REMARK   46  A    between atoms: _98  and  _101
REMARK   47  A    between atoms: _101  and  _102
REMARK   48  A    between atoms: _104  and  _106
REMARK   49  A    between atoms: _106  and  _107
REMARK   50  A    between atoms: _110  and  _112
REMARK   51  A    between atoms: _112  and  _113
REMARK   52  A    between atoms: _115  and  _117
REMARK   53  A    between atoms: _117  and  _118
REMARK   54  A    between atoms: _120  and  _122
REMARK   55  A    between atoms: _122  and  _123
REMARK   56  A    between atoms: _122  and  _125
REMARK   57  A    between atoms: _125  and  _126
REMARK   58  A    between atoms: _129  and  _131
REMARK   59  A    between atoms: _131  and  _132
REMARK   60  A    between atoms: _131  and  _134
REMARK   61  A    between atoms: _134  and  _135
REMARK   62  A    between atoms: _140  and  _142
REMARK   63  A    between atoms: _142  and  _143
REMARK   64  A    between atoms: _142  and  _145
REMARK   65  A    between atoms: _148  and  _150
REMARK   66  A    between atoms: _150  and  _151
REMARK   67  A    between atoms: _150  and  _153
REMARK   68  A    between atoms: _153  and  _154
REMARK   69  A    between atoms: _156  and  _158
REMARK   70  A    between atoms: _158  and  _159
REMARK   71  A    between atoms: _161  and  _163
REMARK   72  A    between atoms: _163  and  _164
REMARK   73  A    between atoms: _163  and  _166
REMARK   74  A    between atoms: _166  and  _167
REMARK   75  A    between atoms: _170  and  _172
REMARK   76  A    between atoms: _172  and  _173
REMARK   77  A    between atoms: _176  and  _178
REMARK   78  A    between atoms: _178  and  _179
REMARK   79  A    between atoms: _178  and  _181
REMARK   80  A    between atoms: _181  and  _182
REMARK   81  A    between atoms: _188  and  _190
REMARK   82  A    between atoms: _190  and  _191
REMARK   83  A    between atoms: _190  and  _193
REMARK   84  A    between atoms: _193  and  _194
REMARK   85  A    between atoms: _197  and  _199
REMARK   86  A    between atoms: _199  and  _200
REMARK   87  A    between atoms: _199  and  _202
REMARK   88  A    between atoms: _202  and  _203
REMARK   89  A    between atoms: _208  and  _210
REMARK   90  A    between atoms: _210  and  _211
REMARK   91  A    between atoms: _213  and  _215
REMARK   92  A    between atoms: _215  and  _216
REMARK   93  A    between atoms: _215  and  _218
REMARK   94  A    between atoms: _218  and  _219
REMARK   95  A    between atoms: _222  and  _224
REMARK   96  A    between atoms: _224  and  _225
REMARK   97  A    between atoms: _224  and  _227
REMARK   98  A    between atoms: _227  and  _228
REMARK   99  A    between atoms: _231  and  _233
REMARK  100  A    between atoms: _233  and  _234
REMARK  101  A    between atoms: _237  and  _239
REMARK  102  A    between atoms: _239  and  _240
REMARK  103  A    between atoms: _239  and  _242
REMARK  104  A    between atoms: _245  and  _247
REMARK  105  A    between atoms: _247  and  _248
REMARK  106  A    between atoms: _247  and  _250
REMARK  107  A    between atoms: _250  and  _251
REMARK  108  A    between atoms: _251  and  _252
REMARK  109  A    between atoms: _255  and  _257
REMARK  110  A    between atoms: _257  and  _258
REMARK  111  A    between atoms: _257  and  _260
REMARK  112  A    between atoms: _260  and  _261
REMARK  113  A    between atoms: _261  and  _262
REMARK  114  A    between atoms: _264  and  _266
REMARK  115  A    between atoms: _266  and  _267
REMARK  116  A    between atoms: _266  and  _269
REMARK  117  A    between atoms: _269  and  _270
REMARK  118  A    between atoms: _270  and  _271
REMARK  119  A    between atoms: _274  and  _276
REMARK  120  A    between atoms: _276  and  _277
REMARK  121  A    between atoms: _280  and  _282
REMARK  122  A    between atoms: _282  and  _283
REMARK  123  A    between atoms: _282  and  _285
REMARK  124  A    between atoms: _285  and  _286
REMARK  125  A    between atoms: _286  and  _287
REMARK  126  A    between atoms: _287  and  _288
REMARK  127  A    between atoms: _297  and  _299
REMARK  128  A    between atoms: _299  and  _300
REMARK  129  A    between atoms: _303  and  _305
REMARK  130  A    between atoms: _305  and  _306
REMARK  131  A    between atoms: _305  and  _308
REMARK  132  A    between atoms: _308  and  _309
REMARK  133  A    between atoms: _312  and  _314
REMARK  134  A    between atoms: _314  and  _315
REMARK  135  A    between atoms: _314  and  _317
REMARK  136  A    between atoms: _317  and  _318
REMARK  137  A    between atoms: _320  and  _322
REMARK  138  A    between atoms: _322  and  _323
REMARK  139  A    between atoms: _322  and  _325
REMARK  140  A    between atoms: _325  and  _326
REMARK  141  A    between atoms: _329  and  _331
REMARK  142  A    between atoms: _331  and  _332
REMARK  143  A    between atoms: _331  and  _334
REMARK  144  A    between atoms: _337  and  _339
REMARK  145  A    between atoms: _339  and  _340
REMARK  146  A    between atoms: _343  and  _345
REMARK  147  A    between atoms: _345  and  _346
REMARK  148  A    between atoms: _345  and  _348
REMARK  149  A    between atoms: _348  and  _349
REMARK  150  A    between atoms: _352  and  _354
REMARK  151  A    between atoms: _354  and  _355
REMARK  152  A    between atoms: _354  and  _357
REMARK  153  A    between atoms: _357  and  _358
REMARK  154  A    between atoms: _358  and  _359
REMARK  155  A    between atoms: _364  and  _366
REMARK  156  A    between atoms: _366  and  _367
REMARK  157  A    between atoms: _366  and  _369
REMARK  158  A    between atoms: _369  and  _370
REMARK  159  A    between atoms: _372  and  _374
REMARK  160  A    between atoms: _374  and  _375
REMARK  161  A    between atoms: _374  and  _377
REMARK  162  A    between atoms: _377  and  _378
REMARK  163  A    between atoms: _383  and  _385
REMARK  164  A    between atoms: _385  and  _386
REMARK  165  A    between atoms: _385  and  _388
REMARK  166  A    between atoms: _388  and  _389
REMARK  167  A    between atoms: _391  and  _393
REMARK  168  A    between atoms: _393  and  _394
REMARK  169  A    between atoms: _393  and  _396
REMARK  170  A    between atoms: _396  and  _397
REMARK  171  A    between atoms: _403  and  _405
REMARK  172  A    between atoms: _405  and  _406
REMARK  173  A    between atoms: _405  and  _408
REMARK  174  A    between atoms: _408  and  _409
REMARK  175  A    between atoms: _412  and  _414
REMARK  176  A    between atoms: _414  and  _415
REMARK  177  A    between atoms: _414  and  _417
REMARK  178  A    between atoms: _417  and  _418
REMARK  179  A    between atoms: _421  and  _423
REMARK  180  A    between atoms: _423  and  _424
REMARK  181  A    between atoms: _427  and  _429
REMARK  182  A    between atoms: _429  and  _430
REMARK  183  A    between atoms: _429  and  _432
REMARK  184  A    between atoms: _432  and  _433
REMARK  185  A    between atoms: _436  and  _438
REMARK  186  A    between atoms: _438  and  _439
REMARK  187  A    between atoms: _438  and  _441
REMARK  188  A    between atoms: _444  and  _446
REMARK  189  A    between atoms: _446  and  _447
REMARK  190  A    between atoms: _450  and  _452
REMARK  191  A    between atoms: _452  and  _453
REMARK  192  A    between atoms: _452  and  _455
REMARK  193  A    between atoms: _455  and  _456
REMARK  194  A    between atoms: _462  and  _464
REMARK  195  A    between atoms: _464  and  _465
REMARK  196  A    between atoms: _464  and  _467
REMARK  197  A    between atoms: _467  and  _468
REMARK  198  A    between atoms: _473  and  _474
REMARK  199  A    between atoms: _476  and  _478
REMARK  200  A    between atoms: _478  and  _479
REMARK  201  A    between atoms: _478  and  _481
REMARK  202  A    between atoms: _481  and  _482
REMARK  203  A    between atoms: _486  and  _487
REMARK                            x       y       z     vdW  Elec       q    Type
REMARK                         _______ _______ _______ _____ _____    ______ ____
ROOT
ATOM      1  CA  ALA A   1     -13.208  -3.176 -24.870  0.00  0.00    +0.133 C 
ATOM      2  CB  ALA A   1     -14.480  -2.360 -24.720  0.00  0.00    +0.027 C 
ENDROOT
BRANCH   1   3
ATOM      3  N   ALA A   1     -12.507  -2.831 -26.107  0.00  0.00    -0.239 NA
ATOM      4  H   ALA A   1     -12.976  -2.216 -26.802  0.00  0.00    +0.142 HD
ENDBRANCH   1   3
BRANCH   1   5
ATOM      5  C   ALA A   1     -13.509  -4.686 -24.785  0.00  0.00    +0.224 C 
ATOM      6  O   ALA A   1     -13.244  -5.312 -23.755  0.00  0.00    -0.287 OA
ENDBRANCH   1   5
TORSDOF 2
REMARK  Name = ../refined-set-2016/4yml/4yml_pocket.pdb
REMARK  203 active torsions:
REMARK  status: ('A' for Active; 'I' for Inactive)
REMARK    1  A    between atoms: _1  and  _3
REMARK    2  A    between atoms: _3  and  _4
REMARK    3  A    between atoms: _6  and  _8
REMARK    4  A    between atoms: _8  and  _9
REMARK    5  A    between atoms: _12  and  _14
REMARK    6  A    between atoms: _14  and  _15
REMARK    7  A    between atoms: _14  and  _17
REMARK    8  A    between atoms: _17  and  _18
REMARK    9  A    between atoms: _18  and  _19
REMARK   10  A    between atoms: _21  and  _23
REMARK   11  A    between atoms: _23  and  _24
REMARK   12  A    between atoms: _23  and  _26
REMARK   13  A    between atoms: _26  and  _27
REMARK   14  A    between atoms: _27  and  _28
REMARK   15  A    between atoms: _31  and  _33
REMARK   16  A    between atoms: _33  and  _34
REMARK   17  A    between atoms: _33  and  _36
REMARK   18  A    between atoms: _36  and  _37
REMARK   19  A    between atoms: _39  and  _41
REMARK   20  A    between atoms: _41  and  _42
REMARK   21  A    between atoms: _44  and  _46
REMARK   22  A    between atoms: _46  and  _47
REMARK   23  A    between atoms: _46  and  _49
REMARK   24  A    between atoms: _49  and  _50
REMARK   25  A    between atoms: _53  and  _55
REMARK   26  A    between atoms: _55  and  _56
REMARK   27  A    between atoms: _58  and  _60
REMARK   28  A    between atoms: _60  and  _61
REMARK   29  A    between atoms: _60  and  _63
REMARK   30  A    between atoms: _63  and  _64
REMARK   31  A    between atoms: _64  and  _65
REMARK   32  A    between atoms: _65  and  _66
REMARK   33  A    between atoms: _66  and  _67
REMARK   34  A    between atoms: _71  and  _73
REMARK   35  A    between atoms: _73  and  _74
REMARK   36  A    between atoms: _73  and  _76
REMARK   37  A    between atoms: _76  and  _77
REMARK   38  A    between atoms: _82  and  _84
REMARK   39  A    between atoms: _84  and  _85
REMARK   40  A    between atoms: _84  and  _87
REMARK   41  A    between atoms: _87  and  _88
REMARK   42  A    between atoms: _91  and  _93
REMARK   43  A    between atoms: _93  and  _94
REMARK   44  A    between atoms: _96  and  _98
REMARK   45  A    between atoms: _98  and  _99
REMARK   46  A    between atoms: _98  and  _101
REMARK   47  A    between atoms: _101  and  _102
REMARK   48  A    between atoms: _104  and  _106
REMARK   49  A    between atoms: _106  and  _107
REMARK   50  A    between atoms: _110  and  _112
REMARK   51  A    between atoms: _112  and  _113
REMARK   52  A    between atoms: _115  and  _117
REMARK   53  A    between atoms: _117  and  _118
REMARK   54  A    between atoms: _120  and  _122
REMARK   55  A    between atoms: _122  and  _123
REMARK   56  A    between atoms: _122  and  _125
REMARK   57  A    between atoms: _125  and  _126
REMARK   58  A    between atoms: _129  and  _131
REMARK   59  A    between atoms: _131  and  _132
REMARK   60  A    between atoms: _131  and  _134
REMARK   61  A    between atoms: _134  and  _135
REMARK   62  A    between atoms: _140  and  _142
REMARK   63  A    between atoms: _142  and  _143
REMARK   64  A    between atoms: _142  and  _145
REMARK   65  A    between atoms: _148  and  _150
REMARK   66  A    between atoms: _150  and  _151
REMARK   67  A    between atoms: _150  and  _153
REMARK   68  A    between atoms: _153  and  _154
REMARK   69  A    between atoms: _156  and  _158
REMARK   70  A    between atoms: _158  and  _159
REMARK   71  A    between atoms: _161  and  _163
REMARK   72  A    between atoms: _163  and  _164
REMARK   73  A    between atoms: _163  and  _166
REMARK   74  A    between atoms: _166  and  _167
REMARK   75  A    between atoms: _170  and  _172
REMARK   76  A    between atoms: _172  and  _173
REMARK   77  A    between atoms: _176  and  _178
REMARK   78  A    between atoms: _178  and  _179
REMARK   79  A    between atoms: _178  and  _181
REMARK   80  A    between atoms: _181  and  _182
REMARK   81  A    between atoms: _188  and  _190
REMARK   82  A    between atoms: _190  and  _191
REMARK   83  A    between atoms: _190  and  _193
REMARK   84  A    between atoms: _193  and  _194
REMARK   85  A    between atoms: _197  and  _199
REMARK   86  A    between atoms: _199  and  _200
REMARK   87  A    between atoms: _199  and  _202
REMARK   88  A    between atoms: _202  and  _203
REMARK   89  A    between atoms: _208  and  _210
REMARK   90  A    between atoms: _210  and  _211
REMARK   91  A    between atoms: _213  and  _215
REMARK   92  A    between atoms: _215  and  _216
REMARK   93  A    between atoms: _215  and  _218
REMARK   94  A    between atoms: _218  and  _219
REMARK   95  A    between atoms: _222  and  _224
REMARK   96  A    between atoms: _224  and  _225
REMARK   97  A    between atoms: _224  and  _227
REMARK   98  A    between atoms: _227  and  _228
REMARK   99  A    between atoms: _231  and  _233
REMARK  100  A    between atoms: _233  and  _234
REMARK  101  A    between atoms: _237  and  _239
REMARK  102  A    between atoms: _239  and  _240
REMARK  103  A    between atoms: _239  and  _242
REMARK  104  A    between atoms: _245  and  _247
REMARK  105  A    between atoms: _247  and  _248
REMARK  106  A    between atoms: _247  and  _250
REMARK  107  A    between atoms: _250  and  _251
REMARK  108  A    between atoms: _251  and  _252
REMARK  109  A    between atoms: _255  and  _257
REMARK  110  A    between atoms: _257  and  _258
REMARK  111  A    between atoms: _257  and  _260
REMARK  112  A    between atoms: _260  and  _261
REMARK  113  A    between atoms: _261  and  _262
REMARK  114  A    between atoms: _264  and  _266
REMARK  115  A    between atoms: _266  and  _267
REMARK  116  A    between atoms: _266  and  _269
REMARK  117  A    between atoms: _269  and  _270
REMARK  118  A    between atoms: _270  and  _271
REMARK  119  A    between atoms: _274  and  _276
REMARK  120  A    between atoms: _276  and  _277
REMARK  121  A    between atoms: _280  and  _282
REMARK  122  A    between atoms: _282  and  _283
REMARK  123  A    between atoms: _282  and  _285
REMARK  124  A    between atoms: _285  and  _286
REMARK  125  A    between atoms: _286  and  _287
REMARK  126  A    between atoms: _287  and  _288
REMARK  127  A    between atoms: _297  and  _299
REMARK  128  A    between atoms: _299  and  _300
REMARK  129  A    between atoms: _303  and  _305
REMARK  130  A    between atoms: _305  and  _306
REMARK  131  A    between atoms: _305  and  _308
REMARK  132  A    between atoms: _308  and  _309
REMARK  133  A    between atoms: _312  and  _314
REMARK  134  A    between atoms: _314  and  _315
REMARK  135  A    between atoms: _314  and  _317
REMARK  136  A    between atoms: _317  and  _318
REMARK  137  A    between atoms: _320  and  _322
REMARK  138  A    between atoms: _322  and  _323
REMARK  139  A    between atoms: _322  and  _325
REMARK  140  A    between atoms: _325  and  _326
REMARK  141  A    between atoms: _329  and  _331
REMARK  142  A    between atoms: _331  and  _332
REMARK  143  A    between atoms: _331  and  _334
REMARK  144  A    between atoms: _337  and  _339
REMARK  145  A    between atoms: _339  and  _340
REMARK  146  A    between atoms: _343  and  _345
REMARK  147  A    between atoms: _345  and  _346
REMARK  148  A    between atoms: _345  and  _348
REMARK  149  A    between atoms: _348  and  _349
REMARK  150  A    between atoms: _352  and  _354
REMARK  151  A    between atoms: _354  and  _355
REMARK  152  A    between atoms: _354  and  _357
REMARK  153  A    between atoms: _357  and  _358
REMARK  154  A    between atoms: _358  and  _359
REMARK  155  A    between atoms: _364  and  _366
REMARK  156  A    between atoms: _366  and  _367
REMARK  157  A    between atoms: _366  and  _369
REMARK  158  A    between atoms: _369  and  _370
REMARK  159  A    between atoms: _372  and  _374
REMARK  160  A    between atoms: _374  and  _375
REMARK  161  A    between atoms: _374  and  _377
REMARK  162  A    between atoms: _377  and  _378
REMARK  163  A    between atoms: _383  and  _385
REMARK  164  A    between atoms: _385  and  _386
REMARK  165  A    between atoms: _385  and  _388
REMARK  166  A    between atoms: _388  and  _389
REMARK  167  A    between atoms: _391  and  _393
REMARK  168  A    between atoms: _393  and  _394
REMARK  169  A    between atoms: _393  and  _396
REMARK  170  A    between atoms: _396  and  _397
REMARK  171  A    between atoms: _403  and  _405
REMARK  172  A    between atoms: _405  and  _406
REMARK  173  A    between atoms: _405  and  _408
REMARK  174  A    between atoms: _408  and  _409
REMARK  175  A    between atoms: _412  and  _414
REMARK  176  A    between atoms: _414  and  _415
REMARK  177  A    between atoms: _414  and  _417
REMARK  178  A    between atoms: _417  and  _418
REMARK  179  A    between atoms: _421  and  _423
REMARK  180  A    between atoms: _423  and  _424
REMARK  181  A    between atoms: _427  and  _429
REMARK  182  A    between atoms: _429  and  _430
REMARK  183  A    between atoms: _429  and  _432
REMARK  184  A    between atoms: _432  and  _433
REMARK  185  A    between atoms: _436  and  _438
REMARK  186  A    between atoms: _438  and  _439
REMARK  187  A    between atoms: _438  and  _441
REMARK  188  A    between atoms: _444  and  _446
REMARK  189  A    between atoms: _446  and  _447
REMARK  190  A    between atoms: _450  and  _452
REMARK  191  A    between atoms: _452  and  _453
REMARK  192  A    between atoms: _452  and  _455
REMARK  193  A    between atoms: _455  and  _456
REMARK  194  A    between atoms: _462  and  _464
REMARK  195  A    between atoms: _464  and  _465
REMARK  196  A    between atoms: _464  and  _467
REMARK  197  A    between atoms: _467  and  _468
REMARK  198  A    between atoms: _473  and  _474
REMARK  199  A    between atoms: _476  and  _478
REMARK  200  A    between atoms: _478  and  _479
REMARK  201  A    between atoms: _478  and  _481
REMARK  202  A    between atoms: _481  and  _482
REMARK  203  A    between atoms: _486  and  _487
REMARK                            x       y       z     vdW  Elec       q    Type
REMARK                         _______ _______ _______ _____ _____    ______ ____
ROOT
ATOM      1  C   ASP A   1     -32.367   4.540 -25.878  0.00  0.00    +0.239 C 
ATOM      2  O   ASP A   1     -31.341   4.675 -25.195  0.00  0.00    -0.274 OA
ATOM      3  N   VAL A   2     -32.358   4.050 -27.117  0.00  0.00    -0.298 N 
ATOM      4  H   VAL A   2     -33.264   3.819 -27.572  0.00  0.00    +0.150 HD
ENDROOT
BRANCH   1   5
ATOM      5  CA  ASP A   1     -33.744   4.889 -25.312  0.00  0.00    +0.156 C 
BRANCH   5   6
ATOM      6  N   ASP A   1     -34.222   3.831 -24.430  0.00  0.00    -0.238 NA
ATOM      7  H   ASP A   1     -33.537   3.288 -23.866  0.00  0.00    +0.142 HD
ENDBRANCH   5   6
BRANCH   5   8
ATOM      8  CB  ASP A   1     -33.714   6.222 -24.559  0.00  0.00    +0.140 C 
BRANCH   8   9
ATOM      9  CG  ASP A   1     -33.319   7.386 -25.451  0.00  0.00    +0.367 C 
ATOM     10  OD2 ASP A   1     -33.541   8.540 -25.038  0.00  0.00    -0.246 OA
ATOM     11  OD1 ASP A   1     -32.792   7.145 -26.557  0.00  0.00    -0.246 OA
ENDBRANCH   8   9
ENDBRANCH   5   8
ENDBRANCH   1   5
BRANCH   3  12
ATOM     12  CA  VAL A   2     -31.118   3.826 -27.860  0.00  0.00    +0.137 C 
BRANCH  12  13
ATOM     13  CB  VAL A   2     -30.866   2.322 -28.148  0.00  0.00    +0.026 C 
ATOM     14  CG2 VAL A   2     -30.952   1.502 -26.856  0.00  0.00    +0.002 C 
ATOM     15  CG1 VAL A   2     -29.492   2.085 -28.726  0.00  0.00    +0.002 C 
ENDBRANCH  12  13
BRANCH  12  16
ATOM     16  C   VAL A   2     -31.218   4.641 -29.152  0.00  0.00    +0.227 C 
ATOM     17  O   VAL A   2     -30.745   4.229 -30.212  0.00  0.00    -0.286 OA
ENDBRANCH  12  16
ENDBRANCH   3  12
TORSDOF 7
REMARK  Name = ../refined-set-2016/4yml/4yml_pocket.pdb
REMARK  203 active torsions:
REMARK  status: ('A' for Active; 'I' for Inactive)
REMARK    1  A    between atoms: _1  and  _3
REMARK    2  A    between atoms: _3  and  _4
REMARK    3  A    between atoms: _6  and  _8
REMARK    4  A    between atoms: _8  and  _9
REMARK    5  A    between atoms: _12  and  _14
REMARK    6  A    between atoms: _14  and  _15
REMARK    7  A    between atoms: _14  and  _17
REMARK    8  A    between atoms: _17  and  _18
REMARK    9  A    between atoms: _18  and  _19
REMARK   10  A    between atoms: _21  and  _23
REMARK   11  A    between atoms: _23  and  _24
REMARK   12  A    between atoms: _23  and  _26
REMARK   13  A    between atoms: _26  and  _27
REMARK   14  A    between atoms: _27  and  _28
REMARK   15  A    between atoms: _31  and  _33
REMARK   16  A    between atoms: _33  and  _34
REMARK   17  A    between atoms: _33  and  _36
REMARK   18  A    between atoms: _36  and  _37
REMARK   19  A    between atoms: _39  and  _41
REMARK   20  A    between atoms: _41  and  _42
REMARK   21  A    between atoms: _44  and  _46
REMARK   22  A    between atoms: _46  and  _47
REMARK   23  A    between atoms: _46  and  _49
REMARK   24  A    between atoms: _49  and  _50
REMARK   25  A    between atoms: _53  and  _55
REMARK   26  A    between atoms: _55  and  _56
REMARK   27  A    between atoms: _58  and  _60
REMARK   28  A    between atoms: _60  and  _61
REMARK   29  A    between atoms: _60  and  _63
REMARK   30  A    between atoms: _63  and  _64
REMARK   31  A    between atoms: _64  and  _65
REMARK   32  A    between atoms: _65  and  _66
REMARK   33  A    between atoms: _66  and  _67
REMARK   34  A    between atoms: _71  and  _73
REMARK   35  A    between atoms: _73  and  _74
REMARK   36  A    between atoms: _73  and  _76
REMARK   37  A    between atoms: _76  and  _77
REMARK   38  A    between atoms: _82  and  _84
REMARK   39  A    between atoms: _84  and  _85
REMARK   40  A    between atoms: _84  and  _87
REMARK   41  A    between atoms: _87  and  _88
REMARK   42  A    between atoms: _91  and  _93
REMARK   43  A    between atoms: _93  and  _94
REMARK   44  A    between atoms: _96  and  _98
REMARK   45  A    between atoms: _98  and  _99
REMARK   46  A    between atoms: _98  and  _101
REMARK   47  A    between atoms: _101  and  _102
REMARK   48  A    between atoms: _104  and  _106
REMARK   49  A    between atoms: _106  and  _107
REMARK   50  A    between atoms: _110  and  _112
REMARK   51  A    between atoms: _112  and  _113
REMARK   52  A    between atoms: _115  and  _117
REMARK   53  A    between atoms: _117  and  _118
REMARK   54  A    between atoms: _120  and  _122
REMARK   55  A    between atoms: _122  and  _123
REMARK   56  A    between atoms: _122  and  _125
REMARK   57  A    between atoms: _125  and  _126
REMARK   58  A    between atoms: _129  and  _131
REMARK   59  A    between atoms: _131  and  _132
REMARK   60  A    between atoms: _131  and  _134
REMARK   61  A    between atoms: _134  and  _135
REMARK   62  A    between atoms: _140  and  _142
REMARK   63  A    between atoms: _142  and  _143
REMARK   64  A    between atoms: _142  and  _145
REMARK   65  A    between atoms: _148  and  _150
REMARK   66  A    between atoms: _150  and  _151
REMARK   67  A    between atoms: _150  and  _153
REMARK   68  A    between atoms: _153  and  _154
REMARK   69  A    between atoms: _156  and  _158
REMARK   70  A    between atoms: _158  and  _159
REMARK   71  A    between atoms: _161  and  _163
REMARK   72  A    between atoms: _163  and  _164
REMARK   73  A    between atoms: _163  and  _166
REMARK   74  A    between atoms: _166  and  _167
REMARK   75  A    between atoms: _170  and  _172
REMARK   76  A    between atoms: _172  and  _173
REMARK   77  A    between atoms: _176  and  _178
REMARK   78  A    between atoms: _178  and  _179
REMARK   79  A    between atoms: _178  and  _181
REMARK   80  A    between atoms: _181  and  _182
REMARK   81  A    between atoms: _188  and  _190
REMARK   82  A    between atoms: _190  and  _191
REMARK   83  A    between atoms: _190  and  _193
REMARK   84  A    between atoms: _193  and  _194
REMARK   85  A    between atoms: _197  and  _199
REMARK   86  A    between atoms: _199  and  _200
REMARK   87  A    between atoms: _199  and  _202
REMARK   88  A    between atoms: _202  and  _203
REMARK   89  A    between atoms: _208  and  _210
REMARK   90  A    between atoms: _210  and  _211
REMARK   91  A    between atoms: _213  and  _215
REMARK   92  A    between atoms: _215  and  _216
REMARK   93  A    between atoms: _215  and  _218
REMARK   94  A    between atoms: _218  and  _219
REMARK   95  A    between atoms: _222  and  _224
REMARK   96  A    between atoms: _224  and  _225
REMARK   97  A    between atoms: _224  and  _227
REMARK   98  A    between atoms: _227  and  _228
REMARK   99  A    between atoms: _231  and  _233
REMARK  100  A    between atoms: _233  and  _234
REMARK  101  A    between atoms: _237  and  _239
REMARK  102  A    between atoms: _239  and  _240
REMARK  103  A    between atoms: _239  and  _242
REMARK  104  A    between atoms: _245  and  _247
REMARK  105  A    between atoms: _247  and  _248
REMARK  106  A    between atoms: _247  and  _250
REMARK  107  A    between atoms: _250  and  _251
REMARK  108  A    between atoms: _251  and  _252
REMARK  109  A    between atoms: _255  and  _257
REMARK  110  A    between atoms: _257  and  _258
REMARK  111  A    between atoms: _257  and  _260
REMARK  112  A    between atoms: _260  and  _261
REMARK  113  A    between atoms: _261  and  _262
REMARK  114  A    between atoms: _264  and  _266
REMARK  115  A    between atoms: _266  and  _267
REMARK  116  A    between atoms: _266  and  _269
REMARK  117  A    between atoms: _269  and  _270
REMARK  118  A    between atoms: _270  and  _271
REMARK  119  A    between atoms: _274  and  _276
REMARK  120  A    between atoms: _276  and  _277
REMARK  121  A    between atoms: _280  and  _282
REMARK  122  A    between atoms: _282  and  _283
REMARK  123  A    between atoms: _282  and  _285
REMARK  124  A    between atoms: _285  and  _286
REMARK  125  A    between atoms: _286  and  _287
REMARK  126  A    between atoms: _287  and  _288
REMARK  127  A    between atoms: _297  and  _299
REMARK  128  A    between atoms: _299  and  _300
REMARK  129  A    between atoms: _303  and  _305
REMARK  130  A    between atoms: _305  and  _306
REMARK  131  A    between atoms: _305  and  _308
REMARK  132  A    between atoms: _308  and  _309
REMARK  133  A    between atoms: _312  and  _314
REMARK  134  A    between atoms: _314  and  _315
REMARK  135  A    between atoms: _314  and  _317
REMARK  136  A    between atoms: _317  and  _318
REMARK  137  A    between atoms: _320  and  _322
REMARK  138  A    between atoms: _322  and  _323
REMARK  139  A    between atoms: _322  and  _325
REMARK  140  A    between atoms: _325  and  _326
REMARK  141  A    between atoms: _329  and  _331
REMARK  142  A    between atoms: _331  and  _332
REMARK  143  A    between atoms: _331  and  _334
REMARK  144  A    between atoms: _337  and  _339
REMARK  145  A    between atoms: _339  and  _340
REMARK  146  A    between atoms: _343  and  _345
REMARK  147  A    between atoms: _345  and  _346
REMARK  148  A    between atoms: _345  and  _348
REMARK  149  A    between atoms: _348  and  _349
REMARK  150  A    between atoms: _352  and  _354
REMARK  151  A    between atoms: _354  and  _355
REMARK  152  A    between atoms: _354  and  _357
REMARK  153  A    between atoms: _357  and  _358
REMARK  154  A    between atoms: _358  and  _359
REMARK  155  A    between atoms: _364  and  _366
REMARK  156  A    between atoms: _366  and  _367
REMARK  157  A    between atoms: _366  and  _369
REMARK  158  A    between atoms: _369  and  _370
REMARK  159  A    between atoms: _372  and  _374
REMARK  160  A    between atoms: _374  and  _375
REMARK  161  A    between atoms: _374  and  _377
REMARK  162  A    between atoms: _377  and  _378
REMARK  163  A    between atoms: _383  and  _385
REMARK  164  A    between atoms: _385  and  _386
REMARK  165  A    between atoms: _385  and  _388
REMARK  166  A    between atoms: _388  and  _389
REMARK  167  A    between atoms: _391  and  _393
REMARK  168  A    between atoms: _393  and  _394
REMARK  169  A    between atoms: _393  and  _396
REMARK  170  A    between atoms: _396  and  _397
REMARK  171  A    between atoms: _403  and  _405
REMARK  172  A    between atoms: _405  and  _406
REMARK  173  A    between atoms: _405  and  _408
REMARK  174  A    between atoms: _408  and  _409
REMARK  175  A    between atoms: _412  and  _414
REMARK  176  A    between atoms: _414  and  _415
REMARK  177  A    between atoms: _414  and  _417
REMARK  178  A    between atoms: _417  and  _418
REMARK  179  A    between atoms: _421  and  _423
REMARK  180  A    between atoms: _423  and  _424
REMARK  181  A    between atoms: _427  and  _429
REMARK  182  A    between atoms: _429  and  _430
REMARK  183  A    between atoms: _429  and  _432
REMARK  184  A    between atoms: _432  and  _433
REMARK  185  A    between atoms: _436  and  _438
REMARK  186  A    between atoms: _438  and  _439
REMARK  187  A    between atoms: _438  and  _441
REMARK  188  A    between atoms: _444  and  _446
REMARK  189  A    between atoms: _446  and  _447
REMARK  190  A    between atoms: _450  and  _452
REMARK  191  A    between atoms: _452  and  _453
REMARK  192  A    between atoms: _452  and  _455
REMARK  193  A    between atoms: _455  and  _456
REMARK  194  A    between atoms: _462  and  _464
REMARK  195  A    between atoms: _464  and  _465
REMARK  196  A    between atoms: _464  and  _467
REMARK  197  A    between atoms: _467  and  _468
REMARK  198  A    between atoms: _473  and  _474
REMARK  199  A    between atoms: _476  and  _478
REMARK  200  A    between atoms: _478  and  _479
REMARK  201  A    between atoms: _478  and  _481
REMARK  202  A    between atoms: _481  and  _482
REMARK  203  A    between atoms: _486  and  _487
REMARK                            x       y       z     vdW  Elec       q    Type
REMARK                         _______ _______ _______ _____ _____    ______ ____
ROOT
ATOM      1  CA  PHE A   2     -27.958   4.709 -32.779  0.00  0.00    +0.141 C 
ENDROOT
BRANCH   1   3
ATOM      2  C   ALA A   1     -27.777   6.779 -31.493  0.00  0.00    +0.238 C 
ATOM      3  N   PHE A   2     -28.304   5.559 -31.653  0.00  0.00    -0.298 N 
ATOM      4  H   PHE A   2     -28.983   5.208 -30.948  0.00  0.00    +0.150 HD
ATOM      5  O   ALA A   1     -26.921   7.270 -32.257  0.00  0.00    -0.274 OA
BRANCH   2   6
ATOM      6  CA  ALA A   1     -28.253   7.577 -30.270  0.00  0.00    +0.145 C 
ATOM      7  CB  ALA A   1     -27.238   7.470 -29.143  0.00  0.00    +0.028 C 
BRANCH   6   8
ATOM      8  N   ALA A   1     -29.582   7.135 -29.832  0.00  0.00    -0.238 NA
ATOM      9  H   ALA A   1     -29.707   6.737 -28.879  0.00  0.00    +0.142 HD
ENDBRANCH   6   8
ENDBRANCH   2   6
ENDBRANCH   1   3
BRANCH   1  10
ATOM     10  C   PHE A   2     -29.109   4.570 -33.769  0.00  0.00    +0.227 C 
ATOM     11  O   PHE A   2     -29.112   3.654 -34.603  0.00  0.00    -0.286 OA
ENDBRANCH   1  10
BRANCH   1  12
ATOM     12  CB  PHE A   2     -27.493   3.326 -32.287  0.00  0.00    +0.054 C 
BRANCH  12  13
ATOM     13  CG  PHE A   2     -26.187   3.364 -31.540  0.00  0.00    -0.020 A 
ATOM     14  CD2 PHE A   2     -26.150   3.219 -30.154  0.00  0.00    -0.004 A 
ATOM     15  CE2 PHE A   2     -24.950   3.273 -29.469  0.00  0.00    -0.000 A 
ATOM     16  CZ  PHE A   2     -23.775   3.469 -30.160  0.00  0.00    -0.000 A 
ATOM     17  CE1 PHE A   2     -23.799   3.623 -31.540  0.00  0.00    -0.000 A 
ATOM     18  CD1 PHE A   2     -24.994   3.577 -32.222  0.00  0.00    -0.004 A 
ENDBRANCH  12  13
ENDBRANCH   1  12
TORSDOF 6
REMARK  Name = ../refined-set-2016/4yml/4yml_pocket.pdb
REMARK  203 active torsions:
REMARK  status: ('A' for Active; 'I' for Inactive)
REMARK    1  A    between atoms: _1  and  _3
REMARK    2  A    between atoms: _3  and  _4
REMARK    3  A    between atoms: _6  and  _8
REMARK    4  A    between atoms: _8  and  _9
REMARK    5  A    between atoms: _12  and  _14
REMARK    6  A    between atoms: _14  and  _15
REMARK    7  A    between atoms: _14  and  _17
REMARK    8  A    between atoms: _17  and  _18
REMARK    9  A    between atoms: _18  and  _19
REMARK   10  A    between atoms: _21  and  _23
REMARK   11  A    between atoms: _23  and  _24
REMARK   12  A    between atoms: _23  and  _26
REMARK   13  A    between atoms: _26  and  _27
REMARK   14  A    between atoms: _27  and  _28
REMARK   15  A    between atoms: _31  and  _33
REMARK   16  A    between atoms: _33  and  _34
REMARK   17  A    between atoms: _33  and  _36
REMARK   18  A    between atoms: _36  and  _37
REMARK   19  A    between atoms: _39  and  _41
REMARK   20  A    between atoms: _41  and  _42
REMARK   21  A    between atoms: _44  and  _46
REMARK   22  A    between atoms: _46  and  _47
REMARK   23  A    between atoms: _46  and  _49
REMARK   24  A    between atoms: _49  and  _50
REMARK   25  A    between atoms: _53  and  _55
REMARK   26  A    between atoms: _55  and  _56
REMARK   27  A    between atoms: _58  and  _60
REMARK   28  A    between atoms: _60  and  _61
REMARK   29  A    between atoms: _60  and  _63
REMARK   30  A    between atoms: _63  and  _64
REMARK   31  A    between atoms: _64  and  _65
REMARK   32  A    between atoms: _65  and  _66
REMARK   33  A    between atoms: _66  and  _67
REMARK   34  A    between atoms: _71  and  _73
REMARK   35  A    between atoms: _73  and  _74
REMARK   36  A    between atoms: _73  and  _76
REMARK   37  A    between atoms: _76  and  _77
REMARK   38  A    between atoms: _82  and  _84
REMARK   39  A    between atoms: _84  and  _85
REMARK   40  A    between atoms: _84  and  _87
REMARK   41  A    between atoms: _87  and  _88
REMARK   42  A    between atoms: _91  and  _93
REMARK   43  A    between atoms: _93  and  _94
REMARK   44  A    between atoms: _96  and  _98
REMARK   45  A    between atoms: _98  and  _99
REMARK   46  A    between atoms: _98  and  _101
REMARK   47  A    between atoms: _101  and  _102
REMARK   48  A    between atoms: _104  and  _106
REMARK   49  A    between atoms: _106  and  _107
REMARK   50  A    between atoms: _110  and  _112
REMARK   51  A    between atoms: _112  and  _113
REMARK   52  A    between atoms: _115  and  _117
REMARK   53  A    between atoms: _117  and  _118
REMARK   54  A    between atoms: _120  and  _122
REMARK   55  A    between atoms: _122  and  _123
REMARK   56  A    between atoms: _122  and  _125
REMARK   57  A    between atoms: _125  and  _126
REMARK   58  A    between atoms: _129  and  _131
REMARK   59  A    between atoms: _131  and  _132
REMARK   60  A    between atoms: _131  and  _134
REMARK   61  A    between atoms: _134  and  _135
REMARK   62  A    between atoms: _140  and  _142
REMARK   63  A    between atoms: _142  and  _143
REMARK   64  A    between atoms: _142  and  _145
REMARK   65  A    between atoms: _148  and  _150
REMARK   66  A    between atoms: _150  and  _151
REMARK   67  A    between atoms: _150  and  _153
REMARK   68  A    between atoms: _153  and  _154
REMARK   69  A    between atoms: _156  and  _158
REMARK   70  A    between atoms: _158  and  _159
REMARK   71  A    between atoms: _161  and  _163
REMARK   72  A    between atoms: _163  and  _164
REMARK   73  A    between atoms: _163  and  _166
REMARK   74  A    between atoms: _166  and  _167
REMARK   75  A    between atoms: _170  and  _172
REMARK   76  A    between atoms: _172  and  _173
REMARK   77  A    between atoms: _176  and  _178
REMARK   78  A    between atoms: _178  and  _179
REMARK   79  A    between atoms: _178  and  _181
REMARK   80  A    between atoms: _181  and  _182
REMARK   81  A    between atoms: _188  and  _190
REMARK   82  A    between atoms: _190  and  _191
REMARK   83  A    between atoms: _190  and  _193
REMARK   84  A    between atoms: _193  and  _194
REMARK   85  A    between atoms: _197  and  _199
REMARK   86  A    between atoms: _199  and  _200
REMARK   87  A    between atoms: _199  and  _202
REMARK   88  A    between atoms: _202  and  _203
REMARK   89  A    between atoms: _208  and  _210
REMARK   90  A    between atoms: _210  and  _211
REMARK   91  A    between atoms: _213  and  _215
REMARK   92  A    between atoms: _215  and  _216
REMARK   93  A    between atoms: _215  and  _218
REMARK   94  A    between atoms: _218  and  _219
REMARK   95  A    between atoms: _222  and  _224
REMARK   96  A    between atoms: _224  and  _225
REMARK   97  A    between atoms: _224  and  _227
REMARK   98  A    between atoms: _227  and  _228
REMARK   99  A    between atoms: _231  and  _233
REMARK  100  A    between atoms: _233  and  _234
REMARK  101  A    between atoms: _237  and  _239
REMARK  102  A    between atoms: _239  and  _240
REMARK  103  A    between atoms: _239  and  _242
REMARK  104  A    between atoms: _245  and  _247
REMARK  105  A    between atoms: _247  and  _248
REMARK  106  A    between atoms: _247  and  _250
REMARK  107  A    between atoms: _250  and  _251
REMARK  108  A    between atoms: _251  and  _252
REMARK  109  A    between atoms: _255  and  _257
REMARK  110  A    between atoms: _257  and  _258
REMARK  111  A    between atoms: _257  and  _260
REMARK  112  A    between atoms: _260  and  _261
REMARK  113  A    between atoms: _261  and  _262
REMARK  114  A    between atoms: _264  and  _266
REMARK  115  A    between atoms: _266  and  _267
REMARK  116  A    between atoms: _266  and  _269
REMARK  117  A    between atoms: _269  and  _270
REMARK  118  A    between atoms: _270  and  _271
REMARK  119  A    between atoms: _274  and  _276
REMARK  120  A    between atoms: _276  and  _277
REMARK  121  A    between atoms: _280  and  _282
REMARK  122  A    between atoms: _282  and  _283
REMARK  123  A    between atoms: _282  and  _285
REMARK  124  A    between atoms: _285  and  _286
REMARK  125  A    between atoms: _286  and  _287
REMARK  126  A    between atoms: _287  and  _288
REMARK  127  A    between atoms: _297  and  _299
REMARK  128  A    between atoms: _299  and  _300
REMARK  129  A    between atoms: _303  and  _305
REMARK  130  A    between atoms: _305  and  _306
REMARK  131  A    between atoms: _305  and  _308
REMARK  132  A    between atoms: _308  and  _309
REMARK  133  A    between atoms: _312  and  _314
REMARK  134  A    between atoms: _314  and  _315
REMARK  135  A    between atoms: _314  and  _317
REMARK  136  A    between atoms: _317  and  _318
REMARK  137  A    between atoms: _320  and  _322
REMARK  138  A    between atoms: _322  and  _323
REMARK  139  A    between atoms: _322  and  _325
REMARK  140  A    between atoms: _325  and  _326
REMARK  141  A    between atoms: _329  and  _331
REMARK  142  A    between atoms: _331  and  _332
REMARK  143  A    between atoms: _331  and  _334
REMARK  144  A    between atoms: _337  and  _339
REMARK  145  A    between atoms: _339  and  _340
REMARK  146  A    between atoms: _343  and  _345
REMARK  147  A    between atoms: _345  and  _346
REMARK  148  A    between atoms: _345  and  _348
REMARK  149  A    between atoms: _348  and  _349
REMARK  150  A    between atoms: _352  and  _354
REMARK  151  A    between atoms: _354  and  _355
REMARK  152  A    between atoms: _354  and  _357
REMARK  153  A    between atoms: _357  and  _358
REMARK  154  A    between atoms: _358  and  _359
REMARK  155  A    between atoms: _364  and  _366
REMARK  156  A    between atoms: _366  and  _367
REMARK  157  A    between atoms: _366  and  _369
REMARK  158  A    between atoms: _369  and  _370
REMARK  159  A    between atoms: _372  and  _374
REMARK  160  A    between atoms: _374  and  _375
REMARK  161  A    between atoms: _374  and  _377
REMARK  162  A    between atoms: _377  and  _378
REMARK  163  A    between atoms: _383  and  _385
REMARK  164  A    between atoms: _385  and  _386
REMARK  165  A    between atoms: _385  and  _388
REMARK  166  A    between atoms: _388  and  _389
REMARK  167  A    between atoms: _391  and  _393
REMARK  168  A    between atoms: _393  and  _394
REMARK  169  A    between atoms: _393  and  _396
REMARK  170  A    between atoms: _396  and  _397
REMARK  171  A    between atoms: _403  and  _405
REMARK  172  A    between atoms: _405  and  _406
REMARK  173  A    between atoms: _405  and  _408
REMARK  174  A    between atoms: _408  and  _409
REMARK  175  A    between atoms: _412  and  _414
REMARK  176  A    between atoms: _414  and  _415
REMARK  177  A    between atoms: _414  and  _417
REMARK  178  A    between atoms: _417  and  _418
REMARK  179  A    between atoms: _421  and  _423
REMARK  180  A    between atoms: _423  and  _424
REMARK  181  A    between atoms: _427  and  _429
REMARK  182  A    between atoms: _429  and  _430
REMARK  183  A    between atoms: _429  and  _432
REMARK  184  A    between atoms: _432  and  _433
REMARK  185  A    between atoms: _436  and  _438
REMARK  186  A    between atoms: _438  and  _439
REMARK  187  A    between atoms: _438  and  _441
REMARK  188  A    between atoms: _444  and  _446
REMARK  189  A    between atoms: _446  and  _447
REMARK  190  A    between atoms: _450  and  _452
REMARK  191  A    between atoms: _452  and  _453
REMARK  192  A    between atoms: _452  and  _455
REMARK  193  A    between atoms: _455  and  _456
REMARK  194  A    between atoms: _462  and  _464
REMARK  195  A    between atoms: _464  and  _465
REMARK  196  A    between atoms: _464  and  _467
REMARK  197  A    between atoms: _467  and  _468
REMARK  198  A    between atoms: _473  and  _474
REMARK  199  A    between atoms: _476  and  _478
REMARK  200  A    between atoms: _478  and  _479
REMARK  201  A    between atoms: _478  and  _481
REMARK  202  A    between atoms: _481  and  _482
REMARK  203  A    between atoms: _486  and  _487
REMARK                            x       y       z     vdW  Elec       q    Type
REMARK                         _______ _______ _______ _____ _____    ______ ____
ROOT
ATOM      1  CG  TYR A   1     -32.163   1.033 -32.289  0.00  0.00    -0.020 A 
ATOM      2  CD2 TYR A   1     -30.819   1.345 -32.087  0.00  0.00    -0.001 A 
ATOM      3  CE2 TYR A   1     -29.809   0.494 -32.491  0.00  0.00    +0.036 A 
ATOM      4  CZ  TYR A   1     -30.133  -0.670 -33.139  0.00  0.00    +0.134 A 
ATOM      5  CE1 TYR A   1     -31.468  -1.018 -33.358  0.00  0.00    +0.036 A 
ATOM      6  CD1 TYR A   1     -32.470  -0.158 -32.955  0.00  0.00    -0.001 A 
ENDROOT
BRANCH   4   7
ATOM      7  OH  TYR A   1     -29.095  -1.455 -33.521  0.00  0.00    -0.506 OA
ATOM      8  HH  TYR A   1     -28.243  -1.019 -33.269  0.00  0.00    +0.292 HD
ENDBRANCH   4   7
BRANCH   1   9
ATOM      9  CB  TYR A   1     -33.246   2.005 -31.878  0.00  0.00    +0.051 C 
BRANCH   9  10
ATOM     10  CA  TYR A   1     -33.528   3.050 -32.998  0.00  0.00    +0.137 C 
BRANCH  10  11
ATOM     11  N   TYR A   1     -32.348   3.831 -33.321  0.00  0.00    -0.239 NA
ATOM     12  H   TYR A   1     -31.572   3.899 -32.632  0.00  0.00    +0.142 HD
ENDBRANCH  10  11
BRANCH  10  13
ATOM     13  C   TYR A   1     -34.664   4.011 -32.624  0.00  0.00    +0.224 C 
ATOM     14  O   TYR A   1     -34.441   5.126 -32.113  0.00  0.00    -0.287 OA
ENDBRANCH  10  13
ENDBRANCH   9  10
ENDBRANCH   1   9
TORSDOF 5
REMARK  Name = ../refined-set-2016/4yml/4yml_pocket.pdb
REMARK  203 active torsions:
REMARK  status: ('A' for Active; 'I' for Inactive)
REMARK    1  A    between atoms: _1  and  _3
REMARK    2  A    between atoms: _3  and  _4
REMARK    3  A    between atoms: _6  and  _8
REMARK    4  A    between atoms: _8  and  _9
REMARK    5  A    between atoms: _12  and  _14
REMARK    6  A    between atoms: _14  and  _15
REMARK    7  A    between atoms: _14  and  _17
REMARK    8  A    between atoms: _17  and  _18
REMARK    9  A    between atoms: _18  and  _19
REMARK   10  A    between atoms: _21  and  _23
REMARK   11  A    between atoms: _23  and  _24
REMARK   12  A    between atoms: _23  and  _26
REMARK   13  A    between atoms: _26  and  _27
REMARK   14  A    between atoms: _27  and  _28
REMARK   15  A    between atoms: _31  and  _33
REMARK   16  A    between atoms: _33  and  _34
REMARK   17  A    between atoms: _33  and  _36
REMARK   18  A    between atoms: _36  and  _37
REMARK   19  A    between atoms: _39  and  _41
REMARK   20  A    between atoms: _41  and  _42
REMARK   21  A    between atoms: _44  and  _46
REMARK   22  A    between atoms: _46  and  _47
REMARK   23  A    between atoms: _46  and  _49
REMARK   24  A    between atoms: _49  and  _50
REMARK   25  A    between atoms: _53  and  _55
REMARK   26  A    between atoms: _55  and  _56
REMARK   27  A    between atoms: _58  and  _60
REMARK   28  A    between atoms: _60  and  _61
REMARK   29  A    between atoms: _60  and  _63
REMARK   30  A    between atoms: _63  and  _64
REMARK   31  A    between atoms: _64  and  _65
REMARK   32  A    between atoms: _65  and  _66
REMARK   33  A    between atoms: _66  and  _67
REMARK   34  A    between atoms: _71  and  _73
REMARK   35  A    between atoms: _73  and  _74
REMARK   36  A    between atoms: _73  and  _76
REMARK   37  A    between atoms: _76  and  _77
REMARK   38  A    between atoms: _82  and  _84
REMARK   39  A    between atoms: _84  and  _85
REMARK   40  A    between atoms: _84  and  _87
REMARK   41  A    between atoms: _87  and  _88
REMARK   42  A    between atoms: _91  and  _93
REMARK   43  A    between atoms: _93  and  _94
REMARK   44  A    between atoms: _96  and  _98
REMARK   45  A    between atoms: _98  and  _99
REMARK   46  A    between atoms: _98  and  _101
REMARK   47  A    between atoms: _101  and  _102
REMARK   48  A    between atoms: _104  and  _106
REMARK   49  A    between atoms: _106  and  _107
REMARK   50  A    between atoms: _110  and  _112
REMARK   51  A    between atoms: _112  and  _113
REMARK   52  A    between atoms: _115  and  _117
REMARK   53  A    between atoms: _117  and  _118
REMARK   54  A    between atoms: _120  and  _122
REMARK   55  A    between atoms: _122  and  _123
REMARK   56  A    between atoms: _122  and  _125
REMARK   57  A    between atoms: _125  and  _126
REMARK   58  A    between atoms: _129  and  _131
REMARK   59  A    between atoms: _131  and  _132
REMARK   60  A    between atoms: _131  and  _134
REMARK   61  A    between atoms: _134  and  _135
REMARK   62  A    between atoms: _140  and  _142
REMARK   63  A    between atoms: _142  and  _143
REMARK   64  A    between atoms: _142  and  _145
REMARK   65  A    between atoms: _148  and  _150
REMARK   66  A    between atoms: _150  and  _151
REMARK   67  A    between atoms: _150  and  _153
REMARK   68  A    between atoms: _153  and  _154
REMARK   69  A    between atoms: _156  and  _158
REMARK   70  A    between atoms: _158  and  _159
REMARK   71  A    between atoms: _161  and  _163
REMARK   72  A    between atoms: _163  and  _164
REMARK   73  A    between atoms: _163  and  _166
REMARK   74  A    between atoms: _166  and  _167
REMARK   75  A    between atoms: _170  and  _172
REMARK   76  A    between atoms: _172  and  _173
REMARK   77  A    between atoms: _176  and  _178
REMARK   78  A    between atoms: _178  and  _179
REMARK   79  A    between atoms: _178  and  _181
REMARK   80  A    between atoms: _181  and  _182
REMARK   81  A    between atoms: _188  and  _190
REMARK   82  A    between atoms: _190  and  _191
REMARK   83  A    between atoms: _190  and  _193
REMARK   84  A    between atoms: _193  and  _194
REMARK   85  A    between atoms: _197  and  _199
REMARK   86  A    between atoms: _199  and  _200
REMARK   87  A    between atoms: _199  and  _202
REMARK   88  A    between atoms: _202  and  _203
REMARK   89  A    between atoms: _208  and  _210
REMARK   90  A    between atoms: _210  and  _211
REMARK   91  A    between atoms: _213  and  _215
REMARK   92  A    between atoms: _215  and  _216
REMARK   93  A    between atoms: _215  and  _218
REMARK   94  A    between atoms: _218  and  _219
REMARK   95  A    between atoms: _222  and  _224
REMARK   96  A    between atoms: _224  and  _225
REMARK   97  A    between atoms: _224  and  _227
REMARK   98  A    between atoms: _227  and  _228
REMARK   99  A    between atoms: _231  and  _233
REMARK  100  A    between atoms: _233  and  _234
REMARK  101  A    between atoms: _237  and  _239
REMARK  102  A    between atoms: _239  and  _240
REMARK  103  A    between atoms: _239  and  _242
REMARK  104  A    between atoms: _245  and  _247
REMARK  105  A    between atoms: _247  and  _248
REMARK  106  A    between atoms: _247  and  _250
REMARK  107  A    between atoms: _250  and  _251
REMARK  108  A    between atoms: _251  and  _252
REMARK  109  A    between atoms: _255  and  _257
REMARK  110  A    between atoms: _257  and  _258
REMARK  111  A    between atoms: _257  and  _260
REMARK  112  A    between atoms: _260  and  _261
REMARK  113  A    between atoms: _261  and  _262
REMARK  114  A    between atoms: _264  and  _266
REMARK  115  A    between atoms: _266  and  _267
REMARK  116  A    between atoms: _266  and  _269
REMARK  117  A    between atoms: _269  and  _270
REMARK  118  A    between atoms: _270  and  _271
REMARK  119  A    between atoms: _274  and  _276
REMARK  120  A    between atoms: _276  and  _277
REMARK  121  A    between atoms: _280  and  _282
REMARK  122  A    between atoms: _282  and  _283
REMARK  123  A    between atoms: _282  and  _285
REMARK  124  A    between atoms: _285  and  _286
REMARK  125  A    between atoms: _286  and  _287
REMARK  126  A    between atoms: _287  and  _288
REMARK  127  A    between atoms: _297  and  _299
REMARK  128  A    between atoms: _299  and  _300
REMARK  129  A    between atoms: _303  and  _305
REMARK  130  A    between atoms: _305  and  _306
REMARK  131  A    between atoms: _305  and  _308
REMARK  132  A    between atoms: _308  and  _309
REMARK  133  A    between atoms: _312  and  _314
REMARK  134  A    between atoms: _314  and  _315
REMARK  135  A    between atoms: _314  and  _317
REMARK  136  A    between atoms: _317  and  _318
REMARK  137  A    between atoms: _320  and  _322
REMARK  138  A    between atoms: _322  and  _323
REMARK  139  A    between atoms: _322  and  _325
REMARK  140  A    between atoms: _325  and  _326
REMARK  141  A    between atoms: _329  and  _331
REMARK  142  A    between atoms: _331  and  _332
REMARK  143  A    between atoms: _331  and  _334
REMARK  144  A    between atoms: _337  and  _339
REMARK  145  A    between atoms: _339  and  _340
REMARK  146  A    between atoms: _343  and  _345
REMARK  147  A    between atoms: _345  and  _346
REMARK  148  A    between atoms: _345  and  _348
REMARK  149  A    between atoms: _348  and  _349
REMARK  150  A    between atoms: _352  and  _354
REMARK  151  A    between atoms: _354  and  _355
REMARK  152  A    between atoms: _354  and  _357
REMARK  153  A    between atoms: _357  and  _358
REMARK  154  A    between atoms: _358  and  _359
REMARK  155  A    between atoms: _364  and  _366
REMARK  156  A    between atoms: _366  and  _367
REMARK  157  A    between atoms: _366  and  _369
REMARK  158  A    between atoms: _369  and  _370
REMARK  159  A    between atoms: _372  and  _374
REMARK  160  A    between atoms: _374  and  _375
REMARK  161  A    between atoms: _374  and  _377
REMARK  162  A    between atoms: _377  and  _378
REMARK  163  A    between atoms: _383  and  _385
REMARK  164  A    between atoms: _385  and  _386
REMARK  165  A    between atoms: _385  and  _388
REMARK  166  A    between atoms: _388  and  _389
REMARK  167  A    between atoms: _391  and  _393
REMARK  168  A    between atoms: _393  and  _394
REMARK  169  A    between atoms: _393  and  _396
REMARK  170  A    between atoms: _396  and  _397
REMARK  171  A    between atoms: _403  and  _405
REMARK  172  A    between atoms: _405  and  _406
REMARK  173  A    between atoms: _405  and  _408
REMARK  174  A    between atoms: _408  and  _409
REMARK  175  A    between atoms: _412  and  _414
REMARK  176  A    between atoms: _414  and  _415
REMARK  177  A    between atoms: _414  and  _417
REMARK  178  A    between atoms: _417  and  _418
REMARK  179  A    between atoms: _421  and  _423
REMARK  180  A    between atoms: _423  and  _424
REMARK  181  A    between atoms: _427  and  _429
REMARK  182  A    between atoms: _429  and  _430
REMARK  183  A    between atoms: _429  and  _432
REMARK  184  A    between atoms: _432  and  _433
REMARK  185  A    between atoms: _436  and  _438
REMARK  186  A    between atoms: _438  and  _439
REMARK  187  A    between atoms: _438  and  _441
REMARK  188  A    between atoms: _444  and  _446
REMARK  189  A    between atoms: _446  and  _447
REMARK  190  A    between atoms: _450  and  _452
REMARK  191  A    between atoms: _452  and  _453
REMARK  192  A    between atoms: _452  and  _455
REMARK  193  A    between atoms: _455  and  _456
REMARK  194  A    between atoms: _462  and  _464
REMARK  195  A    between atoms: _464  and  _465
REMARK  196  A    between atoms: _464  and  _467
REMARK  197  A    between atoms: _467  and  _468
REMARK  198  A    between atoms: _473  and  _474
REMARK  199  A    between atoms: _476  and  _478
REMARK  200  A    between atoms: _478  and  _479
REMARK  201  A    between atoms: _478  and  _481
REMARK  202  A    between atoms: _481  and  _482
REMARK  203  A    between atoms: _486  and  _487
REMARK                            x       y       z     vdW  Elec       q    Type
REMARK                         _______ _______ _______ _____ _____    ______ ____
ROOT
ATOM      1  C   LEU A   1     -33.804  -2.808 -29.150  0.00  0.00    +0.241 C 
ATOM      2  N   PRO A   2     -32.490  -2.720 -29.388  0.00  0.00    -0.273 N 
ATOM      3  CD  PRO A   2     -31.460  -2.034 -28.593  0.00  0.00    +0.094 C 
ATOM      4  CG  PRO A   2     -30.309  -1.918 -29.559  0.00  0.00    +0.024 C 
ATOM      5  CB  PRO A   2     -30.404  -3.125 -30.407  0.00  0.00    +0.030 C 
ATOM      6  CA  PRO A   2     -31.909  -3.402 -30.545  0.00  0.00    +0.140 C 
ATOM      7  O   LEU A   1     -34.589  -3.427 -29.878  0.00  0.00    -0.273 OA
ENDROOT
BRANCH   6   8
ATOM      8  C   PRO A   2     -32.193  -4.890 -30.506  0.00  0.00    +0.227 C 
ATOM      9  O   PRO A   2     -32.116  -5.494 -29.429  0.00  0.00    -0.286 OA
ENDBRANCH   6   8
BRANCH   1  10
ATOM     10  CA  LEU A   1     -34.326  -2.124 -27.901  0.00  0.00    +0.145 C 
BRANCH  10  11
ATOM     11  N   LEU A   1     -35.672  -1.579 -28.147  0.00  0.00    -0.238 NA
ATOM     12  H   LEU A   1     -36.506  -2.197 -28.079  0.00  0.00    +0.142 HD
ENDBRANCH  10  11
BRANCH  10  13
ATOM     13  CB  LEU A   1     -34.332  -3.103 -26.736  0.00  0.00    +0.026 C 
BRANCH  13  14
ATOM     14  CG  LEU A   1     -34.527  -2.321 -25.432  0.00  0.00    +0.002 C 
ATOM     15  CD2 LEU A   1     -34.705  -3.308 -24.319  0.00  0.00    +0.000 C 
ATOM     16  CD1 LEU A   1     -33.354  -1.376 -25.149  0.00  0.00    +0.000 C 
ENDBRANCH  13  14
ENDBRANCH  10  13
ENDBRANCH   1  10
TORSDOF 5
REMARK  Name = ../refined-set-2016/4yml/4yml_pocket.pdb
REMARK  203 active torsions:
REMARK  status: ('A' for Active; 'I' for Inactive)
REMARK    1  A    between atoms: _1  and  _3
REMARK    2  A    between atoms: _3  and  _4
REMARK    3  A    between atoms: _6  and  _8
REMARK    4  A    between atoms: _8  and  _9
REMARK    5  A    between atoms: _12  and  _14
REMARK    6  A    between atoms: _14  and  _15
REMARK    7  A    between atoms: _14  and  _17
REMARK    8  A    between atoms: _17  and  _18
REMARK    9  A    between atoms: _18  and  _19
REMARK   10  A    between atoms: _21  and  _23
REMARK   11  A    between atoms: _23  and  _24
REMARK   12  A    between atoms: _23  and  _26
REMARK   13  A    between atoms: _26  and  _27
REMARK   14  A    between atoms: _27  and  _28
REMARK   15  A    between atoms: _31  and  _33
REMARK   16  A    between atoms: _33  and  _34
REMARK   17  A    between atoms: _33  and  _36
REMARK   18  A    between atoms: _36  and  _37
REMARK   19  A    between atoms: _39  and  _41
REMARK   20  A    between atoms: _41  and  _42
REMARK   21  A    between atoms: _44  and  _46
REMARK   22  A    between atoms: _46  and  _47
REMARK   23  A    between atoms: _46  and  _49
REMARK   24  A    between atoms: _49  and  _50
REMARK   25  A    between atoms: _53  and  _55
REMARK   26  A    between atoms: _55  and  _56
REMARK   27  A    between atoms: _58  and  _60
REMARK   28  A    between atoms: _60  and  _61
REMARK   29  A    between atoms: _60  and  _63
REMARK   30  A    between atoms: _63  and  _64
REMARK   31  A    between atoms: _64  and  _65
REMARK   32  A    between atoms: _65  and  _66
REMARK   33  A    between atoms: _66  and  _67
REMARK   34  A    between atoms: _71  and  _73
REMARK   35  A    between atoms: _73  and  _74
REMARK   36  A    between atoms: _73  and  _76
REMARK   37  A    between atoms: _76  and  _77
REMARK   38  A    between atoms: _82  and  _84
REMARK   39  A    between atoms: _84  and  _85
REMARK   40  A    between atoms: _84  and  _87
REMARK   41  A    between atoms: _87  and  _88
REMARK   42  A    between atoms: _91  and  _93
REMARK   43  A    between atoms: _93  and  _94
REMARK   44  A    between atoms: _96  and  _98
REMARK   45  A    between atoms: _98  and  _99
REMARK   46  A    between atoms: _98  and  _101
REMARK   47  A    between atoms: _101  and  _102
REMARK   48  A    between atoms: _104  and  _106
REMARK   49  A    between atoms: _106  and  _107
REMARK   50  A    between atoms: _110  and  _112
REMARK   51  A    between atoms: _112  and  _113
REMARK   52  A    between atoms: _115  and  _117
REMARK   53  A    between atoms: _117  and  _118
REMARK   54  A    between atoms: _120  and  _122
REMARK   55  A    between atoms: _122  and  _123
REMARK   56  A    between atoms: _122  and  _125
REMARK   57  A    between atoms: _125  and  _126
REMARK   58  A    between atoms: _129  and  _131
REMARK   59  A    between atoms: _131  and  _132
REMARK   60  A    between atoms: _131  and  _134
REMARK   61  A    between atoms: _134  and  _135
REMARK   62  A    between atoms: _140  and  _142
REMARK   63  A    between atoms: _142  and  _143
REMARK   64  A    between atoms: _142  and  _145
REMARK   65  A    between atoms: _148  and  _150
REMARK   66  A    between atoms: _150  and  _151
REMARK   67  A    between atoms: _150  and  _153
REMARK   68  A    between atoms: _153  and  _154
REMARK   69  A    between atoms: _156  and  _158
REMARK   70  A    between atoms: _158  and  _159
REMARK   71  A    between atoms: _161  and  _163
REMARK   72  A    between atoms: _163  and  _164
REMARK   73  A    between atoms: _163  and  _166
REMARK   74  A    between atoms: _166  and  _167
REMARK   75  A    between atoms: _170  and  _172
REMARK   76  A    between atoms: _172  and  _173
REMARK   77  A    between atoms: _176  and  _178
REMARK   78  A    between atoms: _178  and  _179
REMARK   79  A    between atoms: _178  and  _181
REMARK   80  A    between atoms: _181  and  _182
REMARK   81  A    between atoms: _188  and  _190
REMARK   82  A    between atoms: _190  and  _191
REMARK   83  A    between atoms: _190  and  _193
REMARK   84  A    between atoms: _193  and  _194
REMARK   85  A    between atoms: _197  and  _199
REMARK   86  A    between atoms: _199  and  _200
REMARK   87  A    between atoms: _199  and  _202
REMARK   88  A    between atoms: _202  and  _203
REMARK   89  A    between atoms: _208  and  _210
REMARK   90  A    between atoms: _210  and  _211
REMARK   91  A    between atoms: _213  and  _215
REMARK   92  A    between atoms: _215  and  _216
REMARK   93  A    between atoms: _215  and  _218
REMARK   94  A    between atoms: _218  and  _219
REMARK   95  A    between atoms: _222  and  _224
REMARK   96  A    between atoms: _224  and  _225
REMARK   97  A    between atoms: _224  and  _227
REMARK   98  A    between atoms: _227  and  _228
REMARK   99  A    between atoms: _231  and  _233
REMARK  100  A    between atoms: _233  and  _234
REMARK  101  A    between atoms: _237  and  _239
REMARK  102  A    between atoms: _239  and  _240
REMARK  103  A    between atoms: _239  and  _242
REMARK  104  A    between atoms: _245  and  _247
REMARK  105  A    between atoms: _247  and  _248
REMARK  106  A    between atoms: _247  and  _250
REMARK  107  A    between atoms: _250  and  _251
REMARK  108  A    between atoms: _251  and  _252
REMARK  109  A    between atoms: _255  and  _257
REMARK  110  A    between atoms: _257  and  _258
REMARK  111  A    between atoms: _257  and  _260
REMARK  112  A    between atoms: _260  and  _261
REMARK  113  A    between atoms: _261  and  _262
REMARK  114  A    between atoms: _264  and  _266
REMARK  115  A    between atoms: _266  and  _267
REMARK  116  A    between atoms: _266  and  _269
REMARK  117  A    between atoms: _269  and  _270
REMARK  118  A    between atoms: _270  and  _271
REMARK  119  A    between atoms: _274  and  _276
REMARK  120  A    between atoms: _276  and  _277
REMARK  121  A    between atoms: _280  and  _282
REMARK  122  A    between atoms: _282  and  _283
REMARK  123  A    between atoms: _282  and  _285
REMARK  124  A    between atoms: _285  and  _286
REMARK  125  A    between atoms: _286  and  _287
REMARK  126  A    between atoms: _287  and  _288
REMARK  127  A    between atoms: _297  and  _299
REMARK  128  A    between atoms: _299  and  _300
REMARK  129  A    between atoms: _303  and  _305
REMARK  130  A    between atoms: _305  and  _306
REMARK  131  A    between atoms: _305  and  _308
REMARK  132  A    between atoms: _308  and  _309
REMARK  133  A    between atoms: _312  and  _314
REMARK  134  A    between atoms: _314  and  _315
REMARK  135  A    between atoms: _314  and  _317
REMARK  136  A    between atoms: _317  and  _318
REMARK  137  A    between atoms: _320  and  _322
REMARK  138  A    between atoms: _322  and  _323
REMARK  139  A    between atoms: _322  and  _325
REMARK  140  A    between atoms: _325  and  _326
REMARK  141  A    between atoms: _329  and  _331
REMARK  142  A    between atoms: _331  and  _332
REMARK  143  A    between atoms: _331  and  _334
REMARK  144  A    between atoms: _337  and  _339
REMARK  145  A    between atoms: _339  and  _340
REMARK  146  A    between atoms: _343  and  _345
REMARK  147  A    between atoms: _345  and  _346
REMARK  148  A    between atoms: _345  and  _348
REMARK  149  A    between atoms: _348  and  _349
REMARK  150  A    between atoms: _352  and  _354
REMARK  151  A    between atoms: _354  and  _355
REMARK  152  A    between atoms: _354  and  _357
REMARK  153  A    between atoms: _357  and  _358
REMARK  154  A    between atoms: _358  and  _359
REMARK  155  A    between atoms: _364  and  _366
REMARK  156  A    between atoms: _366  and  _367
REMARK  157  A    between atoms: _366  and  _369
REMARK  158  A    between atoms: _369  and  _370
REMARK  159  A    between atoms: _372  and  _374
REMARK  160  A    between atoms: _374  and  _375
REMARK  161  A    between atoms: _374  and  _377
REMARK  162  A    between atoms: _377  and  _378
REMARK  163  A    between atoms: _383  and  _385
REMARK  164  A    between atoms: _385  and  _386
REMARK  165  A    between atoms: _385  and  _388
REMARK  166  A    between atoms: _388  and  _389
REMARK  167  A    between atoms: _391  and  _393
REMARK  168  A    between atoms: _393  and  _394
REMARK  169  A    between atoms: _393  and  _396
REMARK  170  A    between atoms: _396  and  _397
REMARK  171  A    between atoms: _403  and  _405
REMARK  172  A    between atoms: _405  and  _406
REMARK  173  A    between atoms: _405  and  _408
REMARK  174  A    between atoms: _408  and  _409
REMARK  175  A    between atoms: _412  and  _414
REMARK  176  A    between atoms: _414  and  _415
REMARK  177  A    between atoms: _414  and  _417
REMARK  178  A    between atoms: _417  and  _418
REMARK  179  A    between atoms: _421  and  _423
REMARK  180  A    between atoms: _423  and  _424
REMARK  181  A    between atoms: _427  and  _429
REMARK  182  A    between atoms: _429  and  _430
REMARK  183  A    between atoms: _429  and  _432
REMARK  184  A    between atoms: _432  and  _433
REMARK  185  A    between atoms: _436  and  _438
REMARK  186  A    between atoms: _438  and  _439
REMARK  187  A    between atoms: _438  and  _441
REMARK  188  A    between atoms: _444  and  _446
REMARK  189  A    between atoms: _446  and  _447
REMARK  190  A    between atoms: _450  and  _452
REMARK  191  A    between atoms: _452  and  _453
REMARK  192  A    between atoms: _452  and  _455
REMARK  193  A    between atoms: _455  and  _456
REMARK  194  A    between atoms: _462  and  _464
REMARK  195  A    between atoms: _464  and  _465
REMARK  196  A    between atoms: _464  and  _467
REMARK  197  A    between atoms: _467  and  _468
REMARK  198  A    between atoms: _473  and  _474
REMARK  199  A    between atoms: _476  and  _478
REMARK  200  A    between atoms: _478  and  _479
REMARK  201  A    between atoms: _478  and  _481
REMARK  202  A    between atoms: _481  and  _482
REMARK  203  A    between atoms: _486  and  _487
REMARK                            x       y       z     vdW  Elec       q    Type
REMARK                         _______ _______ _______ _____ _____    ______ ____
ROOT
ATOM      1  O   HOH     1     -30.088  -7.401 -28.768  0.00  0.00    +0.000 OA
ENDROOT
TORSDOF 0
REMARK  Name = ../refined-set-2016/4yml/4yml_pocket.pdb
REMARK  203 active torsions:
REMARK  status: ('A' for Active; 'I' for Inactive)
REMARK    1  A    between atoms: _1  and  _3
REMARK    2  A    between atoms: _3  and  _4
REMARK    3  A    between atoms: _6  and  _8
REMARK    4  A    between atoms: _8  and  _9
REMARK    5  A    between atoms: _12  and  _14
REMARK    6  A    between atoms: _14  and  _15
REMARK    7  A    between atoms: _14  and  _17
REMARK    8  A    between atoms: _17  and  _18
REMARK    9  A    between atoms: _18  and  _19
REMARK   10  A    between atoms: _21  and  _23
REMARK   11  A    between atoms: _23  and  _24
REMARK   12  A    between atoms: _23  and  _26
REMARK   13  A    between atoms: _26  and  _27
REMARK   14  A    between atoms: _27  and  _28
REMARK   15  A    between atoms: _31  and  _33
REMARK   16  A    between atoms: _33  and  _34
REMARK   17  A    between atoms: _33  and  _36
REMARK   18  A    between atoms: _36  and  _37
REMARK   19  A    between atoms: _39  and  _41
REMARK   20  A    between atoms: _41  and  _42
REMARK   21  A    between atoms: _44  and  _46
REMARK   22  A    between atoms: _46  and  _47
REMARK   23  A    between atoms: _46  and  _49
REMARK   24  A    between atoms: _49  and  _50
REMARK   25  A    between atoms: _53  and  _55
REMARK   26  A    between atoms: _55  and  _56
REMARK   27  A    between atoms: _58  and  _60
REMARK   28  A    between atoms: _60  and  _61
REMARK   29  A    between atoms: _60  and  _63
REMARK   30  A    between atoms: _63  and  _64
REMARK   31  A    between atoms: _64  and  _65
REMARK   32  A    between atoms: _65  and  _66
REMARK   33  A    between atoms: _66  and  _67
REMARK   34  A    between atoms: _71  and  _73
REMARK   35  A    between atoms: _73  and  _74
REMARK   36  A    between atoms: _73  and  _76
REMARK   37  A    between atoms: _76  and  _77
REMARK   38  A    between atoms: _82  and  _84
REMARK   39  A    between atoms: _84  and  _85
REMARK   40  A    between atoms: _84  and  _87
REMARK   41  A    between atoms: _87  and  _88
REMARK   42  A    between atoms: _91  and  _93
REMARK   43  A    between atoms: _93  and  _94
REMARK   44  A    between atoms: _96  and  _98
REMARK   45  A    between atoms: _98  and  _99
REMARK   46  A    between atoms: _98  and  _101
REMARK   47  A    between atoms: _101  and  _102
REMARK   48  A    between atoms: _104  and  _106
REMARK   49  A    between atoms: _106  and  _107
REMARK   50  A    between atoms: _110  and  _112
REMARK   51  A    between atoms: _112  and  _113
REMARK   52  A    between atoms: _115  and  _117
REMARK   53  A    between atoms: _117  and  _118
REMARK   54  A    between atoms: _120  and  _122
REMARK   55  A    between atoms: _122  and  _123
REMARK   56  A    between atoms: _122  and  _125
REMARK   57  A    between atoms: _125  and  _126
REMARK   58  A    between atoms: _129  and  _131
REMARK   59  A    between atoms: _131  and  _132
REMARK   60  A    between atoms: _131  and  _134
REMARK   61  A    between atoms: _134  and  _135
REMARK   62  A    between atoms: _140  and  _142
REMARK   63  A    between atoms: _142  and  _143
REMARK   64  A    between atoms: _142  and  _145
REMARK   65  A    between atoms: _148  and  _150
REMARK   66  A    between atoms: _150  and  _151
REMARK   67  A    between atoms: _150  and  _153
REMARK   68  A    between atoms: _153  and  _154
REMARK   69  A    between atoms: _156  and  _158
REMARK   70  A    between atoms: _158  and  _159
REMARK   71  A    between atoms: _161  and  _163
REMARK   72  A    between atoms: _163  and  _164
REMARK   73  A    between atoms: _163  and  _166
REMARK   74  A    between atoms: _166  and  _167
REMARK   75  A    between atoms: _170  and  _172
REMARK   76  A    between atoms: _172  and  _173
REMARK   77  A    between atoms: _176  and  _178
REMARK   78  A    between atoms: _178  and  _179
REMARK   79  A    between atoms: _178  and  _181
REMARK   80  A    between atoms: _181  and  _182
REMARK   81  A    between atoms: _188  and  _190
REMARK   82  A    between atoms: _190  and  _191
REMARK   83  A    between atoms: _190  and  _193
REMARK   84  A    between atoms: _193  and  _194
REMARK   85  A    between atoms: _197  and  _199
REMARK   86  A    between atoms: _199  and  _200
REMARK   87  A    between atoms: _199  and  _202
REMARK   88  A    between atoms: _202  and  _203
REMARK   89  A    between atoms: _208  and  _210
REMARK   90  A    between atoms: _210  and  _211
REMARK   91  A    between atoms: _213  and  _215
REMARK   92  A    between atoms: _215  and  _216
REMARK   93  A    between atoms: _215  and  _218
REMARK   94  A    between atoms: _218  and  _219
REMARK   95  A    between atoms: _222  and  _224
REMARK   96  A    between atoms: _224  and  _225
REMARK   97  A    between atoms: _224  and  _227
REMARK   98  A    between atoms: _227  and  _228
REMARK   99  A    between atoms: _231  and  _233
REMARK  100  A    between atoms: _233  and  _234
REMARK  101  A    between atoms: _237  and  _239
REMARK  102  A    between atoms: _239  and  _240
REMARK  103  A    between atoms: _239  and  _242
REMARK  104  A    between atoms: _245  and  _247
REMARK  105  A    between atoms: _247  and  _248
REMARK  106  A    between atoms: _247  and  _250
REMARK  107  A    between atoms: _250  and  _251
REMARK  108  A    between atoms: _251  and  _252
REMARK  109  A    between atoms: _255  and  _257
REMARK  110  A    between atoms: _257  and  _258
REMARK  111  A    between atoms: _257  and  _260
REMARK  112  A    between atoms: _260  and  _261
REMARK  113  A    between atoms: _261  and  _262
REMARK  114  A    between atoms: _264  and  _266
REMARK  115  A    between atoms: _266  and  _267
REMARK  116  A    between atoms: _266  and  _269
REMARK  117  A    between atoms: _269  and  _270
REMARK  118  A    between atoms: _270  and  _271
REMARK  119  A    between atoms: _274  and  _276
REMARK  120  A    between atoms: _276  and  _277
REMARK  121  A    between atoms: _280  and  _282
REMARK  122  A    between atoms: _282  and  _283
REMARK  123  A    between atoms: _282  and  _285
REMARK  124  A    between atoms: _285  and  _286
REMARK  125  A    between atoms: _286  and  _287
REMARK  126  A    between atoms: _287  and  _288
REMARK  127  A    between atoms: _297  and  _299
REMARK  128  A    between atoms: _299  and  _300
REMARK  129  A    between atoms: _303  and  _305
REMARK  130  A    between atoms: _305  and  _306
REMARK  131  A    between atoms: _305  and  _308
REMARK  132  A    between atoms: _308  and  _309
REMARK  133  A    between atoms: _312  and  _314
REMARK  134  A    between atoms: _314  and  _315
REMARK  135  A    between atoms: _314  and  _317
REMARK  136  A    between atoms: _317  and  _318
REMARK  137  A    between atoms: _320  and  _322
REMARK  138  A    between atoms: _322  and  _323
REMARK  139  A    between atoms: _322  and  _325
REMARK  140  A    between atoms: _325  and  _326
REMARK  141  A    between atoms: _329  and  _331
REMARK  142  A    between atoms: _331  and  _332
REMARK  143  A    between atoms: _331  and  _334
REMARK  144  A    between atoms: _337  and  _339
REMARK  145  A    between atoms: _339  and  _340
REMARK  146  A    between atoms: _343  and  _345
REMARK  147  A    between atoms: _345  and  _346
REMARK  148  A    between atoms: _345  and  _348
REMARK  149  A    between atoms: _348  and  _349
REMARK  150  A    between atoms: _352  and  _354
REMARK  151  A    between atoms: _354  and  _355
REMARK  152  A    between atoms: _354  and  _357
REMARK  153  A    between atoms: _357  and  _358
REMARK  154  A    between atoms: _358  and  _359
REMARK  155  A    between atoms: _364  and  _366
REMARK  156  A    between atoms: _366  and  _367
REMARK  157  A    between atoms: _366  and  _369
REMARK  158  A    between atoms: _369  and  _370
REMARK  159  A    between atoms: _372  and  _374
REMARK  160  A    between atoms: _374  and  _375
REMARK  161  A    between atoms: _374  and  _377
REMARK  162  A    between atoms: _377  and  _378
REMARK  163  A    between atoms: _383  and  _385
REMARK  164  A    between atoms: _385  and  _386
REMARK  165  A    between atoms: _385  and  _388
REMARK  166  A    between atoms: _388  and  _389
REMARK  167  A    between atoms: _391  and  _393
REMARK  168  A    between atoms: _393  and  _394
REMARK  169  A    between atoms: _393  and  _396
REMARK  170  A    between atoms: _396  and  _397
REMARK  171  A    between atoms: _403  and  _405
REMARK  172  A    between atoms: _405  and  _406
REMARK  173  A    between atoms: _405  and  _408
REMARK  174  A    between atoms: _408  and  _409
REMARK  175  A    between atoms: _412  and  _414
REMARK  176  A    between atoms: _414  and  _415
REMARK  177  A    between atoms: _414  and  _417
REMARK  178  A    between atoms: _417  and  _418
REMARK  179  A    between atoms: _421  and  _423
REMARK  180  A    between atoms: _423  and  _424
REMARK  181  A    between atoms: _427  and  _429
REMARK  182  A    between atoms: _429  and  _430
REMARK  183  A    between atoms: _429  and  _432
REMARK  184  A    between atoms: _432  and  _433
REMARK  185  A    between atoms: _436  and  _438
REMARK  186  A    between atoms: _438  and  _439
REMARK  187  A    between atoms: _438  and  _441
REMARK  188  A    between atoms: _444  and  _446
REMARK  189  A    between atoms: _446  and  _447
REMARK  190  A    between atoms: _450  and  _452
REMARK  191  A    between atoms: _452  and  _453
REMARK  192  A    between atoms: _452  and  _455
REMARK  193  A    between atoms: _455  and  _456
REMARK  194  A    between atoms: _462  and  _464
REMARK  195  A    between atoms: _464  and  _465
REMARK  196  A    between atoms: _464  and  _467
REMARK  197  A    between atoms: _467  and  _468
REMARK  198  A    between atoms: _473  and  _474
REMARK  199  A    between atoms: _476  and  _478
REMARK  200  A    between atoms: _478  and  _479
REMARK  201  A    between atoms: _478  and  _481
REMARK  202  A    between atoms: _481  and  _482
REMARK  203  A    between atoms: _486  and  _487
REMARK                            x       y       z     vdW  Elec       q    Type
REMARK                         _______ _______ _______ _____ _____    ______ ____
ROOT
ATOM      1  O   HOH     1     -27.310  -7.550 -29.961  0.00  0.00    +0.000 OA
ENDROOT
TORSDOF 0
REMARK  Name = ../refined-set-2016/4yml/4yml_pocket.pdb
REMARK  203 active torsions:
REMARK  status: ('A' for Active; 'I' for Inactive)
REMARK    1  A    between atoms: _1  and  _3
REMARK    2  A    between atoms: _3  and  _4
REMARK    3  A    between atoms: _6  and  _8
REMARK    4  A    between atoms: _8  and  _9
REMARK    5  A    between atoms: _12  and  _14
REMARK    6  A    between atoms: _14  and  _15
REMARK    7  A    between atoms: _14  and  _17
REMARK    8  A    between atoms: _17  and  _18
REMARK    9  A    between atoms: _18  and  _19
REMARK   10  A    between atoms: _21  and  _23
REMARK   11  A    between atoms: _23  and  _24
REMARK   12  A    between atoms: _23  and  _26
REMARK   13  A    between atoms: _26  and  _27
REMARK   14  A    between atoms: _27  and  _28
REMARK   15  A    between atoms: _31  and  _33
REMARK   16  A    between atoms: _33  and  _34
REMARK   17  A    between atoms: _33  and  _36
REMARK   18  A    between atoms: _36  and  _37
REMARK   19  A    between atoms: _39  and  _41
REMARK   20  A    between atoms: _41  and  _42
REMARK   21  A    between atoms: _44  and  _46
REMARK   22  A    between atoms: _46  and  _47
REMARK   23  A    between atoms: _46  and  _49
REMARK   24  A    between atoms: _49  and  _50
REMARK   25  A    between atoms: _53  and  _55
REMARK   26  A    between atoms: _55  and  _56
REMARK   27  A    between atoms: _58  and  _60
REMARK   28  A    between atoms: _60  and  _61
REMARK   29  A    between atoms: _60  and  _63
REMARK   30  A    between atoms: _63  and  _64
REMARK   31  A    between atoms: _64  and  _65
REMARK   32  A    between atoms: _65  and  _66
REMARK   33  A    between atoms: _66  and  _67
REMARK   34  A    between atoms: _71  and  _73
REMARK   35  A    between atoms: _73  and  _74
REMARK   36  A    between atoms: _73  and  _76
REMARK   37  A    between atoms: _76  and  _77
REMARK   38  A    between atoms: _82  and  _84
REMARK   39  A    between atoms: _84  and  _85
REMARK   40  A    between atoms: _84  and  _87
REMARK   41  A    between atoms: _87  and  _88
REMARK   42  A    between atoms: _91  and  _93
REMARK   43  A    between atoms: _93  and  _94
REMARK   44  A    between atoms: _96  and  _98
REMARK   45  A    between atoms: _98  and  _99
REMARK   46  A    between atoms: _98  and  _101
REMARK   47  A    between atoms: _101  and  _102
REMARK   48  A    between atoms: _104  and  _106
REMARK   49  A    between atoms: _106  and  _107
REMARK   50  A    between atoms: _110  and  _112
REMARK   51  A    between atoms: _112  and  _113
REMARK   52  A    between atoms: _115  and  _117
REMARK   53  A    between atoms: _117  and  _118
REMARK   54  A    between atoms: _120  and  _122
REMARK   55  A    between atoms: _122  and  _123
REMARK   56  A    between atoms: _122  and  _125
REMARK   57  A    between atoms: _125  and  _126
REMARK   58  A    between atoms: _129  and  _131
REMARK   59  A    between atoms: _131  and  _132
REMARK   60  A    between atoms: _131  and  _134
REMARK   61  A    between atoms: _134  and  _135
REMARK   62  A    between atoms: _140  and  _142
REMARK   63  A    between atoms: _142  and  _143
REMARK   64  A    between atoms: _142  and  _145
REMARK   65  A    between atoms: _148  and  _150
REMARK   66  A    between atoms: _150  and  _151
REMARK   67  A    between atoms: _150  and  _153
REMARK   68  A    between atoms: _153  and  _154
REMARK   69  A    between atoms: _156  and  _158
REMARK   70  A    between atoms: _158  and  _159
REMARK   71  A    between atoms: _161  and  _163
REMARK   72  A    between atoms: _163  and  _164
REMARK   73  A    between atoms: _163  and  _166
REMARK   74  A    between atoms: _166  and  _167
REMARK   75  A    between atoms: _170  and  _172
REMARK   76  A    between atoms: _172  and  _173
REMARK   77  A    between atoms: _176  and  _178
REMARK   78  A    between atoms: _178  and  _179
REMARK   79  A    between atoms: _178  and  _181
REMARK   80  A    between atoms: _181  and  _182
REMARK   81  A    between atoms: _188  and  _190
REMARK   82  A    between atoms: _190  and  _191
REMARK   83  A    between atoms: _190  and  _193
REMARK   84  A    between atoms: _193  and  _194
REMARK   85  A    between atoms: _197  and  _199
REMARK   86  A    between atoms: _199  and  _200
REMARK   87  A    between atoms: _199  and  _202
REMARK   88  A    between atoms: _202  and  _203
REMARK   89  A    between atoms: _208  and  _210
REMARK   90  A    between atoms: _210  and  _211
REMARK   91  A    between atoms: _213  and  _215
REMARK   92  A    between atoms: _215  and  _216
REMARK   93  A    between atoms: _215  and  _218
REMARK   94  A    between atoms: _218  and  _219
REMARK   95  A    between atoms: _222  and  _224
REMARK   96  A    between atoms: _224  and  _225
REMARK   97  A    between atoms: _224  and  _227
REMARK   98  A    between atoms: _227  and  _228
REMARK   99  A    between atoms: _231  and  _233
REMARK  100  A    between atoms: _233  and  _234
REMARK  101  A    between atoms: _237  and  _239
REMARK  102  A    between atoms: _239  and  _240
REMARK  103  A    between atoms: _239  and  _242
REMARK  104  A    between atoms: _245  and  _247
REMARK  105  A    between atoms: _247  and  _248
REMARK  106  A    between atoms: _247  and  _250
REMARK  107  A    between atoms: _250  and  _251
REMARK  108  A    between atoms: _251  and  _252
REMARK  109  A    between atoms: _255  and  _257
REMARK  110  A    between atoms: _257  and  _258
REMARK  111  A    between atoms: _257  and  _260
REMARK  112  A    between atoms: _260  and  _261
REMARK  113  A    between atoms: _261  and  _262
REMARK  114  A    between atoms: _264  and  _266
REMARK  115  A    between atoms: _266  and  _267
REMARK  116  A    between atoms: _266  and  _269
REMARK  117  A    between atoms: _269  and  _270
REMARK  118  A    between atoms: _270  and  _271
REMARK  119  A    between atoms: _274  and  _276
REMARK  120  A    between atoms: _276  and  _277
REMARK  121  A    between atoms: _280  and  _282
REMARK  122  A    between atoms: _282  and  _283
REMARK  123  A    between atoms: _282  and  _285
REMARK  124  A    between atoms: _285  and  _286
REMARK  125  A    between atoms: _286  and  _287
REMARK  126  A    between atoms: _287  and  _288
REMARK  127  A    between atoms: _297  and  _299
REMARK  128  A    between atoms: _299  and  _300
REMARK  129  A    between atoms: _303  and  _305
REMARK  130  A    between atoms: _305  and  _306
REMARK  131  A    between atoms: _305  and  _308
REMARK  132  A    between atoms: _308  and  _309
REMARK  133  A    between atoms: _312  and  _314
REMARK  134  A    between atoms: _314  and  _315
REMARK  135  A    between atoms: _314  and  _317
REMARK  136  A    between atoms: _317  and  _318
REMARK  137  A    between atoms: _320  and  _322
REMARK  138  A    between atoms: _322  and  _323
REMARK  139  A    between atoms: _322  and  _325
REMARK  140  A    between atoms: _325  and  _326
REMARK  141  A    between atoms: _329  and  _331
REMARK  142  A    between atoms: _331  and  _332
REMARK  143  A    between atoms: _331  and  _334
REMARK  144  A    between atoms: _337  and  _339
REMARK  145  A    between atoms: _339  and  _340
REMARK  146  A    between atoms: _343  and  _345
REMARK  147  A    between atoms: _345  and  _346
REMARK  148  A    between atoms: _345  and  _348
REMARK  149  A    between atoms: _348  and  _349
REMARK  150  A    between atoms: _352  and  _354
REMARK  151  A    between atoms: _354  and  _355
REMARK  152  A    between atoms: _354  and  _357
REMARK  153  A    between atoms: _357  and  _358
REMARK  154  A    between atoms: _358  and  _359
REMARK  155  A    between atoms: _364  and  _366
REMARK  156  A    between atoms: _366  and  _367
REMARK  157  A    between atoms: _366  and  _369
REMARK  158  A    between atoms: _369  and  _370
REMARK  159  A    between atoms: _372  and  _374
REMARK  160  A    between atoms: _374  and  _375
REMARK  161  A    between atoms: _374  and  _377
REMARK  162  A    between atoms: _377  and  _378
REMARK  163  A    between atoms: _383  and  _385
REMARK  164  A    between atoms: _385  and  _386
REMARK  165  A    between atoms: _385  and  _388
REMARK  166  A    between atoms: _388  and  _389
REMARK  167  A    between atoms: _391  and  _393
REMARK  168  A    between atoms: _393  and  _394
REMARK  169  A    between atoms: _393  and  _396
REMARK  170  A    between atoms: _396  and  _397
REMARK  171  A    between atoms: _403  and  _405
REMARK  172  A    between atoms: _405  and  _406
REMARK  173  A    between atoms: _405  and  _408
REMARK  174  A    between atoms: _408  and  _409
REMARK  175  A    between atoms: _412  and  _414
REMARK  176  A    between atoms: _414  and  _415
REMARK  177  A    between atoms: _414  and  _417
REMARK  178  A    between atoms: _417  and  _418
REMARK  179  A    between atoms: _421  and  _423
REMARK  180  A    between atoms: _423  and  _424
REMARK  181  A    between atoms: _427  and  _429
REMARK  182  A    between atoms: _429  and  _430
REMARK  183  A    between atoms: _429  and  _432
REMARK  184  A    between atoms: _432  and  _433
REMARK  185  A    between atoms: _436  and  _438
REMARK  186  A    between atoms: _438  and  _439
REMARK  187  A    between atoms: _438  and  _441
REMARK  188  A    between atoms: _444  and  _446
REMARK  189  A    between atoms: _446  and  _447
REMARK  190  A    between atoms: _450  and  _452
REMARK  191  A    between atoms: _452  and  _453
REMARK  192  A    between atoms: _452  and  _455
REMARK  193  A    between atoms: _455  and  _456
REMARK  194  A    between atoms: _462  and  _464
REMARK  195  A    between atoms: _464  and  _465
REMARK  196  A    between atoms: _464  and  _467
REMARK  197  A    between atoms: _467  and  _468
REMARK  198  A    between atoms: _473  and  _474
REMARK  199  A    between atoms: _476  and  _478
REMARK  200  A    between atoms: _478  and  _479
REMARK  201  A    between atoms: _478  and  _481
REMARK  202  A    between atoms: _481  and  _482
REMARK  203  A    between atoms: _486  and  _487
REMARK                            x       y       z     vdW  Elec       q    Type
REMARK                         _______ _______ _______ _____ _____    ______ ____
ROOT
ATOM      1  O   HOH     1     -28.001   2.547 -19.175  0.00  0.00    +0.000 OA
ENDROOT
TORSDOF 0
REMARK  Name = ../refined-set-2016/4yml/4yml_pocket.pdb
REMARK  203 active torsions:
REMARK  status: ('A' for Active; 'I' for Inactive)
REMARK    1  A    between atoms: _1  and  _3
REMARK    2  A    between atoms: _3  and  _4
REMARK    3  A    between atoms: _6  and  _8
REMARK    4  A    between atoms: _8  and  _9
REMARK    5  A    between atoms: _12  and  _14
REMARK    6  A    between atoms: _14  and  _15
REMARK    7  A    between atoms: _14  and  _17
REMARK    8  A    between atoms: _17  and  _18
REMARK    9  A    between atoms: _18  and  _19
REMARK   10  A    between atoms: _21  and  _23
REMARK   11  A    between atoms: _23  and  _24
REMARK   12  A    between atoms: _23  and  _26
REMARK   13  A    between atoms: _26  and  _27
REMARK   14  A    between atoms: _27  and  _28
REMARK   15  A    between atoms: _31  and  _33
REMARK   16  A    between atoms: _33  and  _34
REMARK   17  A    between atoms: _33  and  _36
REMARK   18  A    between atoms: _36  and  _37
REMARK   19  A    between atoms: _39  and  _41
REMARK   20  A    between atoms: _41  and  _42
REMARK   21  A    between atoms: _44  and  _46
REMARK   22  A    between atoms: _46  and  _47
REMARK   23  A    between atoms: _46  and  _49
REMARK   24  A    between atoms: _49  and  _50
REMARK   25  A    between atoms: _53  and  _55
REMARK   26  A    between atoms: _55  and  _56
REMARK   27  A    between atoms: _58  and  _60
REMARK   28  A    between atoms: _60  and  _61
REMARK   29  A    between atoms: _60  and  _63
REMARK   30  A    between atoms: _63  and  _64
REMARK   31  A    between atoms: _64  and  _65
REMARK   32  A    between atoms: _65  and  _66
REMARK   33  A    between atoms: _66  and  _67
REMARK   34  A    between atoms: _71  and  _73
REMARK   35  A    between atoms: _73  and  _74
REMARK   36  A    between atoms: _73  and  _76
REMARK   37  A    between atoms: _76  and  _77
REMARK   38  A    between atoms: _82  and  _84
REMARK   39  A    between atoms: _84  and  _85
REMARK   40  A    between atoms: _84  and  _87
REMARK   41  A    between atoms: _87  and  _88
REMARK   42  A    between atoms: _91  and  _93
REMARK   43  A    between atoms: _93  and  _94
REMARK   44  A    between atoms: _96  and  _98
REMARK   45  A    between atoms: _98  and  _99
REMARK   46  A    between atoms: _98  and  _101
REMARK   47  A    between atoms: _101  and  _102
REMARK   48  A    between atoms: _104  and  _106
REMARK   49  A    between atoms: _106  and  _107
REMARK   50  A    between atoms: _110  and  _112
REMARK   51  A    between atoms: _112  and  _113
REMARK   52  A    between atoms: _115  and  _117
REMARK   53  A    between atoms: _117  and  _118
REMARK   54  A    between atoms: _120  and  _122
REMARK   55  A    between atoms: _122  and  _123
REMARK   56  A    between atoms: _122  and  _125
REMARK   57  A    between atoms: _125  and  _126
REMARK   58  A    between atoms: _129  and  _131
REMARK   59  A    between atoms: _131  and  _132
REMARK   60  A    between atoms: _131  and  _134
REMARK   61  A    between atoms: _134  and  _135
REMARK   62  A    between atoms: _140  and  _142
REMARK   63  A    between atoms: _142  and  _143
REMARK   64  A    between atoms: _142  and  _145
REMARK   65  A    between atoms: _148  and  _150
REMARK   66  A    between atoms: _150  and  _151
REMARK   67  A    between atoms: _150  and  _153
REMARK   68  A    between atoms: _153  and  _154
REMARK   69  A    between atoms: _156  and  _158
REMARK   70  A    between atoms: _158  and  _159
REMARK   71  A    between atoms: _161  and  _163
REMARK   72  A    between atoms: _163  and  _164
REMARK   73  A    between atoms: _163  and  _166
REMARK   74  A    between atoms: _166  and  _167
REMARK   75  A    between atoms: _170  and  _172
REMARK   76  A    between atoms: _172  and  _173
REMARK   77  A    between atoms: _176  and  _178
REMARK   78  A    between atoms: _178  and  _179
REMARK   79  A    between atoms: _178  and  _181
REMARK   80  A    between atoms: _181  and  _182
REMARK   81  A    between atoms: _188  and  _190
REMARK   82  A    between atoms: _190  and  _191
REMARK   83  A    between atoms: _190  and  _193
REMARK   84  A    between atoms: _193  and  _194
REMARK   85  A    between atoms: _197  and  _199
REMARK   86  A    between atoms: _199  and  _200
REMARK   87  A    between atoms: _199  and  _202
REMARK   88  A    between atoms: _202  and  _203
REMARK   89  A    between atoms: _208  and  _210
REMARK   90  A    between atoms: _210  and  _211
REMARK   91  A    between atoms: _213  and  _215
REMARK   92  A    between atoms: _215  and  _216
REMARK   93  A    between atoms: _215  and  _218
REMARK   94  A    between atoms: _218  and  _219
REMARK   95  A    between atoms: _222  and  _224
REMARK   96  A    between atoms: _224  and  _225
REMARK   97  A    between atoms: _224  and  _227
REMARK   98  A    between atoms: _227  and  _228
REMARK   99  A    between atoms: _231  and  _233
REMARK  100  A    between atoms: _233  and  _234
REMARK  101  A    between atoms: _237  and  _239
REMARK  102  A    between atoms: _239  and  _240
REMARK  103  A    between atoms: _239  and  _242
REMARK  104  A    between atoms: _245  and  _247
REMARK  105  A    between atoms: _247  and  _248
REMARK  106  A    between atoms: _247  and  _250
REMARK  107  A    between atoms: _250  and  _251
REMARK  108  A    between atoms: _251  and  _252
REMARK  109  A    between atoms: _255  and  _257
REMARK  110  A    between atoms: _257  and  _258
REMARK  111  A    between atoms: _257  and  _260
REMARK  112  A    between atoms: _260  and  _261
REMARK  113  A    between atoms: _261  and  _262
REMARK  114  A    between atoms: _264  and  _266
REMARK  115  A    between atoms: _266  and  _267
REMARK  116  A    between atoms: _266  and  _269
REMARK  117  A    between atoms: _269  and  _270
REMARK  118  A    between atoms: _270  and  _271
REMARK  119  A    between atoms: _274  and  _276
REMARK  120  A    between atoms: _276  and  _277
REMARK  121  A    between atoms: _280  and  _282
REMARK  122  A    between atoms: _282  and  _283
REMARK  123  A    between atoms: _282  and  _285
REMARK  124  A    between atoms: _285  and  _286
REMARK  125  A    between atoms: _286  and  _287
REMARK  126  A    between atoms: _287  and  _288
REMARK  127  A    between atoms: _297  and  _299
REMARK  128  A    between atoms: _299  and  _300
REMARK  129  A    between atoms: _303  and  _305
REMARK  130  A    between atoms: _305  and  _306
REMARK  131  A    between atoms: _305  and  _308
REMARK  132  A    between atoms: _308  and  _309
REMARK  133  A    between atoms: _312  and  _314
REMARK  134  A    between atoms: _314  and  _315
REMARK  135  A    between atoms: _314  and  _317
REMARK  136  A    between atoms: _317  and  _318
REMARK  137  A    between atoms: _320  and  _322
REMARK  138  A    between atoms: _322  and  _323
REMARK  139  A    between atoms: _322  and  _325
REMARK  140  A    between atoms: _325  and  _326
REMARK  141  A    between atoms: _329  and  _331
REMARK  142  A    between atoms: _331  and  _332
REMARK  143  A    between atoms: _331  and  _334
REMARK  144  A    between atoms: _337  and  _339
REMARK  145  A    between atoms: _339  and  _340
REMARK  146  A    between atoms: _343  and  _345
REMARK  147  A    between atoms: _345  and  _346
REMARK  148  A    between atoms: _345  and  _348
REMARK  149  A    between atoms: _348  and  _349
REMARK  150  A    between atoms: _352  and  _354
REMARK  151  A    between atoms: _354  and  _355
REMARK  152  A    between atoms: _354  and  _357
REMARK  153  A    between atoms: _357  and  _358
REMARK  154  A    between atoms: _358  and  _359
REMARK  155  A    between atoms: _364  and  _366
REMARK  156  A    between atoms: _366  and  _367
REMARK  157  A    between atoms: _366  and  _369
REMARK  158  A    between atoms: _369  and  _370
REMARK  159  A    between atoms: _372  and  _374
REMARK  160  A    between atoms: _374  and  _375
REMARK  161  A    between atoms: _374  and  _377
REMARK  162  A    between atoms: _377  and  _378
REMARK  163  A    between atoms: _383  and  _385
REMARK  164  A    between atoms: _385  and  _386
REMARK  165  A    between atoms: _385  and  _388
REMARK  166  A    between atoms: _388  and  _389
REMARK  167  A    between atoms: _391  and  _393
REMARK  168  A    between atoms: _393  and  _394
REMARK  169  A    between atoms: _393  and  _396
REMARK  170  A    between atoms: _396  and  _397
REMARK  171  A    between atoms: _403  and  _405
REMARK  172  A    between atoms: _405  and  _406
REMARK  173  A    between atoms: _405  and  _408
REMARK  174  A    between atoms: _408  and  _409
REMARK  175  A    between atoms: _412  and  _414
REMARK  176  A    between atoms: _414  and  _415
REMARK  177  A    between atoms: _414  and  _417
REMARK  178  A    between atoms: _417  and  _418
REMARK  179  A    between atoms: _421  and  _423
REMARK  180  A    between atoms: _423  and  _424
REMARK  181  A    between atoms: _427  and  _429
REMARK  182  A    between atoms: _429  and  _430
REMARK  183  A    between atoms: _429  and  _432
REMARK  184  A    between atoms: _432  and  _433
REMARK  185  A    between atoms: _436  and  _438
REMARK  186  A    between atoms: _438  and  _439
REMARK  187  A    between atoms: _438  and  _441
REMARK  188  A    between atoms: _444  and  _446
REMARK  189  A    between atoms: _446  and  _447
REMARK  190  A    between atoms: _450  and  _452
REMARK  191  A    between atoms: _452  and  _453
REMARK  192  A    between atoms: _452  and  _455
REMARK  193  A    between atoms: _455  and  _456
REMARK  194  A    between atoms: _462  and  _464
REMARK  195  A    between atoms: _464  and  _465
REMARK  196  A    between atoms: _464  and  _467
REMARK  197  A    between atoms: _467  and  _468
REMARK  198  A    between atoms: _473  and  _474
REMARK  199  A    between atoms: _476  and  _478
REMARK  200  A    between atoms: _478  and  _479
REMARK  201  A    between atoms: _478  and  _481
REMARK  202  A    between atoms: _481  and  _482
REMARK  203  A    between atoms: _486  and  _487
REMARK                            x       y       z     vdW  Elec       q    Type
REMARK                         _______ _______ _______ _____ _____    ______ ____
ROOT
ATOM      1  O   HOH     1     -17.240   8.900 -25.122  0.00  0.00    +0.000 OA
ENDROOT
TORSDOF 0
REMARK  Name = ../refined-set-2016/4yml/4yml_pocket.pdb
REMARK  203 active torsions:
REMARK  status: ('A' for Active; 'I' for Inactive)
REMARK    1  A    between atoms: _1  and  _3
REMARK    2  A    between atoms: _3  and  _4
REMARK    3  A    between atoms: _6  and  _8
REMARK    4  A    between atoms: _8  and  _9
REMARK    5  A    between atoms: _12  and  _14
REMARK    6  A    between atoms: _14  and  _15
REMARK    7  A    between atoms: _14  and  _17
REMARK    8  A    between atoms: _17  and  _18
REMARK    9  A    between atoms: _18  and  _19
REMARK   10  A    between atoms: _21  and  _23
REMARK   11  A    between atoms: _23  and  _24
REMARK   12  A    between atoms: _23  and  _26
REMARK   13  A    between atoms: _26  and  _27
REMARK   14  A    between atoms: _27  and  _28
REMARK   15  A    between atoms: _31  and  _33
REMARK   16  A    between atoms: _33  and  _34
REMARK   17  A    between atoms: _33  and  _36
REMARK   18  A    between atoms: _36  and  _37
REMARK   19  A    between atoms: _39  and  _41
REMARK   20  A    between atoms: _41  and  _42
REMARK   21  A    between atoms: _44  and  _46
REMARK   22  A    between atoms: _46  and  _47
REMARK   23  A    between atoms: _46  and  _49
REMARK   24  A    between atoms: _49  and  _50
REMARK   25  A    between atoms: _53  and  _55
REMARK   26  A    between atoms: _55  and  _56
REMARK   27  A    between atoms: _58  and  _60
REMARK   28  A    between atoms: _60  and  _61
REMARK   29  A    between atoms: _60  and  _63
REMARK   30  A    between atoms: _63  and  _64
REMARK   31  A    between atoms: _64  and  _65
REMARK   32  A    between atoms: _65  and  _66
REMARK   33  A    between atoms: _66  and  _67
REMARK   34  A    between atoms: _71  and  _73
REMARK   35  A    between atoms: _73  and  _74
REMARK   36  A    between atoms: _73  and  _76
REMARK   37  A    between atoms: _76  and  _77
REMARK   38  A    between atoms: _82  and  _84
REMARK   39  A    between atoms: _84  and  _85
REMARK   40  A    between atoms: _84  and  _87
REMARK   41  A    between atoms: _87  and  _88
REMARK   42  A    between atoms: _91  and  _93
REMARK   43  A    between atoms: _93  and  _94
REMARK   44  A    between atoms: _96  and  _98
REMARK   45  A    between atoms: _98  and  _99
REMARK   46  A    between atoms: _98  and  _101
REMARK   47  A    between atoms: _101  and  _102
REMARK   48  A    between atoms: _104  and  _106
REMARK   49  A    between atoms: _106  and  _107
REMARK   50  A    between atoms: _110  and  _112
REMARK   51  A    between atoms: _112  and  _113
REMARK   52  A    between atoms: _115  and  _117
REMARK   53  A    between atoms: _117  and  _118
REMARK   54  A    between atoms: _120  and  _122
REMARK   55  A    between atoms: _122  and  _123
REMARK   56  A    between atoms: _122  and  _125
REMARK   57  A    between atoms: _125  and  _126
REMARK   58  A    between atoms: _129  and  _131
REMARK   59  A    between atoms: _131  and  _132
REMARK   60  A    between atoms: _131  and  _134
REMARK   61  A    between atoms: _134  and  _135
REMARK   62  A    between atoms: _140  and  _142
REMARK   63  A    between atoms: _142  and  _143
REMARK   64  A    between atoms: _142  and  _145
REMARK   65  A    between atoms: _148  and  _150
REMARK   66  A    between atoms: _150  and  _151
REMARK   67  A    between atoms: _150  and  _153
REMARK   68  A    between atoms: _153  and  _154
REMARK   69  A    between atoms: _156  and  _158
REMARK   70  A    between atoms: _158  and  _159
REMARK   71  A    between atoms: _161  and  _163
REMARK   72  A    between atoms: _163  and  _164
REMARK   73  A    between atoms: _163  and  _166
REMARK   74  A    between atoms: _166  and  _167
REMARK   75  A    between atoms: _170  and  _172
REMARK   76  A    between atoms: _172  and  _173
REMARK   77  A    between atoms: _176  and  _178
REMARK   78  A    between atoms: _178  and  _179
REMARK   79  A    between atoms: _178  and  _181
REMARK   80  A    between atoms: _181  and  _182
REMARK   81  A    between atoms: _188  and  _190
REMARK   82  A    between atoms: _190  and  _191
REMARK   83  A    between atoms: _190  and  _193
REMARK   84  A    between atoms: _193  and  _194
REMARK   85  A    between atoms: _197  and  _199
REMARK   86  A    between atoms: _199  and  _200
REMARK   87  A    between atoms: _199  and  _202
REMARK   88  A    between atoms: _202  and  _203
REMARK   89  A    between atoms: _208  and  _210
REMARK   90  A    between atoms: _210  and  _211
REMARK   91  A    between atoms: _213  and  _215
REMARK   92  A    between atoms: _215  and  _216
REMARK   93  A    between atoms: _215  and  _218
REMARK   94  A    between atoms: _218  and  _219
REMARK   95  A    between atoms: _222  and  _224
REMARK   96  A    between atoms: _224  and  _225
REMARK   97  A    between atoms: _224  and  _227
REMARK   98  A    between atoms: _227  and  _228
REMARK   99  A    between atoms: _231  and  _233
REMARK  100  A    between atoms: _233  and  _234
REMARK  101  A    between atoms: _237  and  _239
REMARK  102  A    between atoms: _239  and  _240
REMARK  103  A    between atoms: _239  and  _242
REMARK  104  A    between atoms: _245  and  _247
REMARK  105  A    between atoms: _247  and  _248
REMARK  106  A    between atoms: _247  and  _250
REMARK  107  A    between atoms: _250  and  _251
REMARK  108  A    between atoms: _251  and  _252
REMARK  109  A    between atoms: _255  and  _257
REMARK  110  A    between atoms: _257  and  _258
REMARK  111  A    between atoms: _257  and  _260
REMARK  112  A    between atoms: _260  and  _261
REMARK  113  A    between atoms: _261  and  _262
REMARK  114  A    between atoms: _264  and  _266
REMARK  115  A    between atoms: _266  and  _267
REMARK  116  A    between atoms: _266  and  _269
REMARK  117  A    between atoms: _269  and  _270
REMARK  118  A    between atoms: _270  and  _271
REMARK  119  A    between atoms: _274  and  _276
REMARK  120  A    between atoms: _276  and  _277
REMARK  121  A    between atoms: _280  and  _282
REMARK  122  A    between atoms: _282  and  _283
REMARK  123  A    between atoms: _282  and  _285
REMARK  124  A    between atoms: _285  and  _286
REMARK  125  A    between atoms: _286  and  _287
REMARK  126  A    between atoms: _287  and  _288
REMARK  127  A    between atoms: _297  and  _299
REMARK  128  A    between atoms: _299  and  _300
REMARK  129  A    between atoms: _303  and  _305
REMARK  130  A    between atoms: _305  and  _306
REMARK  131  A    between atoms: _305  and  _308
REMARK  132  A    between atoms: _308  and  _309
REMARK  133  A    between atoms: _312  and  _314
REMARK  134  A    between atoms: _314  and  _315
REMARK  135  A    between atoms: _314  and  _317
REMARK  136  A    between atoms: _317  and  _318
REMARK  137  A    between atoms: _320  and  _322
REMARK  138  A    between atoms: _322  and  _323
REMARK  139  A    between atoms: _322  and  _325
REMARK  140  A    between atoms: _325  and  _326
REMARK  141  A    between atoms: _329  and  _331
REMARK  142  A    between atoms: _331  and  _332
REMARK  143  A    between atoms: _331  and  _334
REMARK  144  A    between atoms: _337  and  _339
REMARK  145  A    between atoms: _339  and  _340
REMARK  146  A    between atoms: _343  and  _345
REMARK  147  A    between atoms: _345  and  _346
REMARK  148  A    between atoms: _345  and  _348
REMARK  149  A    between atoms: _348  and  _349
REMARK  150  A    between atoms: _352  and  _354
REMARK  151  A    between atoms: _354  and  _355
REMARK  152  A    between atoms: _354  and  _357
REMARK  153  A    between atoms: _357  and  _358
REMARK  154  A    between atoms: _358  and  _359
REMARK  155  A    between atoms: _364  and  _366
REMARK  156  A    between atoms: _366  and  _367
REMARK  157  A    between atoms: _366  and  _369
REMARK  158  A    between atoms: _369  and  _370
REMARK  159  A    between atoms: _372  and  _374
REMARK  160  A    between atoms: _374  and  _375
REMARK  161  A    between atoms: _374  and  _377
REMARK  162  A    between atoms: _377  and  _378
REMARK  163  A    between atoms: _383  and  _385
REMARK  164  A    between atoms: _385  and  _386
REMARK  165  A    between atoms: _385  and  _388
REMARK  166  A    between atoms: _388  and  _389
REMARK  167  A    between atoms: _391  and  _393
REMARK  168  A    between atoms: _393  and  _394
REMARK  169  A    between atoms: _393  and  _396
REMARK  170  A    between atoms: _396  and  _397
REMARK  171  A    between atoms: _403  and  _405
REMARK  172  A    between atoms: _405  and  _406
REMARK  173  A    between atoms: _405  and  _408
REMARK  174  A    between atoms: _408  and  _409
REMARK  175  A    between atoms: _412  and  _414
REMARK  176  A    between atoms: _414  and  _415
REMARK  177  A    between atoms: _414  and  _417
REMARK  178  A    between atoms: _417  and  _418
REMARK  179  A    between atoms: _421  and  _423
REMARK  180  A    between atoms: _423  and  _424
REMARK  181  A    between atoms: _427  and  _429
REMARK  182  A    between atoms: _429  and  _430
REMARK  183  A    between atoms: _429  and  _432
REMARK  184  A    between atoms: _432  and  _433
REMARK  185  A    between atoms: _436  and  _438
REMARK  186  A    between atoms: _438  and  _439
REMARK  187  A    between atoms: _438  and  _441
REMARK  188  A    between atoms: _444  and  _446
REMARK  189  A    between atoms: _446  and  _447
REMARK  190  A    between atoms: _450  and  _452
REMARK  191  A    between atoms: _452  and  _453
REMARK  192  A    between atoms: _452  and  _455
REMARK  193  A    between atoms: _455  and  _456
REMARK  194  A    between atoms: _462  and  _464
REMARK  195  A    between atoms: _464  and  _465
REMARK  196  A    between atoms: _464  and  _467
REMARK  197  A    between atoms: _467  and  _468
REMARK  198  A    between atoms: _473  and  _474
REMARK  199  A    between atoms: _476  and  _478
REMARK  200  A    between atoms: _478  and  _479
REMARK  201  A    between atoms: _478  and  _481
REMARK  202  A    between atoms: _481  and  _482
REMARK  203  A    between atoms: _486  and  _487
REMARK                            x       y       z     vdW  Elec       q    Type
REMARK                         _______ _______ _______ _____ _____    ______ ____
ROOT
ATOM      1  O   HOH     1     -27.826  10.318 -22.667  0.00  0.00    +0.000 OA
ENDROOT
TORSDOF 0
REMARK  Name = ../refined-set-2016/4yml/4yml_pocket.pdb
REMARK  203 active torsions:
REMARK  status: ('A' for Active; 'I' for Inactive)
REMARK    1  A    between atoms: _1  and  _3
REMARK    2  A    between atoms: _3  and  _4
REMARK    3  A    between atoms: _6  and  _8
REMARK    4  A    between atoms: _8  and  _9
REMARK    5  A    between atoms: _12  and  _14
REMARK    6  A    between atoms: _14  and  _15
REMARK    7  A    between atoms: _14  and  _17
REMARK    8  A    between atoms: _17  and  _18
REMARK    9  A    between atoms: _18  and  _19
REMARK   10  A    between atoms: _21  and  _23
REMARK   11  A    between atoms: _23  and  _24
REMARK   12  A    between atoms: _23  and  _26
REMARK   13  A    between atoms: _26  and  _27
REMARK   14  A    between atoms: _27  and  _28
REMARK   15  A    between atoms: _31  and  _33
REMARK   16  A    between atoms: _33  and  _34
REMARK   17  A    between atoms: _33  and  _36
REMARK   18  A    between atoms: _36  and  _37
REMARK   19  A    between atoms: _39  and  _41
REMARK   20  A    between atoms: _41  and  _42
REMARK   21  A    between atoms: _44  and  _46
REMARK   22  A    between atoms: _46  and  _47
REMARK   23  A    between atoms: _46  and  _49
REMARK   24  A    between atoms: _49  and  _50
REMARK   25  A    between atoms: _53  and  _55
REMARK   26  A    between atoms: _55  and  _56
REMARK   27  A    between atoms: _58  and  _60
REMARK   28  A    between atoms: _60  and  _61
REMARK   29  A    between atoms: _60  and  _63
REMARK   30  A    between atoms: _63  and  _64
REMARK   31  A    between atoms: _64  and  _65
REMARK   32  A    between atoms: _65  and  _66
REMARK   33  A    between atoms: _66  and  _67
REMARK   34  A    between atoms: _71  and  _73
REMARK   35  A    between atoms: _73  and  _74
REMARK   36  A    between atoms: _73  and  _76
REMARK   37  A    between atoms: _76  and  _77
REMARK   38  A    between atoms: _82  and  _84
REMARK   39  A    between atoms: _84  and  _85
REMARK   40  A    between atoms: _84  and  _87
REMARK   41  A    between atoms: _87  and  _88
REMARK   42  A    between atoms: _91  and  _93
REMARK   43  A    between atoms: _93  and  _94
REMARK   44  A    between atoms: _96  and  _98
REMARK   45  A    between atoms: _98  and  _99
REMARK   46  A    between atoms: _98  and  _101
REMARK   47  A    between atoms: _101  and  _102
REMARK   48  A    between atoms: _104  and  _106
REMARK   49  A    between atoms: _106  and  _107
REMARK   50  A    between atoms: _110  and  _112
REMARK   51  A    between atoms: _112  and  _113
REMARK   52  A    between atoms: _115  and  _117
REMARK   53  A    between atoms: _117  and  _118
REMARK   54  A    between atoms: _120  and  _122
REMARK   55  A    between atoms: _122  and  _123
REMARK   56  A    between atoms: _122  and  _125
REMARK   57  A    between atoms: _125  and  _126
REMARK   58  A    between atoms: _129  and  _131
REMARK   59  A    between atoms: _131  and  _132
REMARK   60  A    between atoms: _131  and  _134
REMARK   61  A    between atoms: _134  and  _135
REMARK   62  A    between atoms: _140  and  _142
REMARK   63  A    between atoms: _142  and  _143
REMARK   64  A    between atoms: _142  and  _145
REMARK   65  A    between atoms: _148  and  _150
REMARK   66  A    between atoms: _150  and  _151
REMARK   67  A    between atoms: _150  and  _153
REMARK   68  A    between atoms: _153  and  _154
REMARK   69  A    between atoms: _156  and  _158
REMARK   70  A    between atoms: _158  and  _159
REMARK   71  A    between atoms: _161  and  _163
REMARK   72  A    between atoms: _163  and  _164
REMARK   73  A    between atoms: _163  and  _166
REMARK   74  A    between atoms: _166  and  _167
REMARK   75  A    between atoms: _170  and  _172
REMARK   76  A    between atoms: _172  and  _173
REMARK   77  A    between atoms: _176  and  _178
REMARK   78  A    between atoms: _178  and  _179
REMARK   79  A    between atoms: _178  and  _181
REMARK   80  A    between atoms: _181  and  _182
REMARK   81  A    between atoms: _188  and  _190
REMARK   82  A    between atoms: _190  and  _191
REMARK   83  A    between atoms: _190  and  _193
REMARK   84  A    between atoms: _193  and  _194
REMARK   85  A    between atoms: _197  and  _199
REMARK   86  A    between atoms: _199  and  _200
REMARK   87  A    between atoms: _199  and  _202
REMARK   88  A    between atoms: _202  and  _203
REMARK   89  A    between atoms: _208  and  _210
REMARK   90  A    between atoms: _210  and  _211
REMARK   91  A    between atoms: _213  and  _215
REMARK   92  A    between atoms: _215  and  _216
REMARK   93  A    between atoms: _215  and  _218
REMARK   94  A    between atoms: _218  and  _219
REMARK   95  A    between atoms: _222  and  _224
REMARK   96  A    between atoms: _224  and  _225
REMARK   97  A    between atoms: _224  and  _227
REMARK   98  A    between atoms: _227  and  _228
REMARK   99  A    between atoms: _231  and  _233
REMARK  100  A    between atoms: _233  and  _234
REMARK  101  A    between atoms: _237  and  _239
REMARK  102  A    between atoms: _239  and  _240
REMARK  103  A    between atoms: _239  and  _242
REMARK  104  A    between atoms: _245  and  _247
REMARK  105  A    between atoms: _247  and  _248
REMARK  106  A    between atoms: _247  and  _250
REMARK  107  A    between atoms: _250  and  _251
REMARK  108  A    between atoms: _251  and  _252
REMARK  109  A    between atoms: _255  and  _257
REMARK  110  A    between atoms: _257  and  _258
REMARK  111  A    between atoms: _257  and  _260
REMARK  112  A    between atoms: _260  and  _261
REMARK  113  A    between atoms: _261  and  _262
REMARK  114  A    between atoms: _264  and  _266
REMARK  115  A    between atoms: _266  and  _267
REMARK  116  A    between atoms: _266  and  _269
REMARK  117  A    between atoms: _269  and  _270
REMARK  118  A    between atoms: _270  and  _271
REMARK  119  A    between atoms: _274  and  _276
REMARK  120  A    between atoms: _276  and  _277
REMARK  121  A    between atoms: _280  and  _282
REMARK  122  A    between atoms: _282  and  _283
REMARK  123  A    between atoms: _282  and  _285
REMARK  124  A    between atoms: _285  and  _286
REMARK  125  A    between atoms: _286  and  _287
REMARK  126  A    between atoms: _287  and  _288
REMARK  127  A    between atoms: _297  and  _299
REMARK  128  A    between atoms: _299  and  _300
REMARK  129  A    between atoms: _303  and  _305
REMARK  130  A    between atoms: _305  and  _306
REMARK  131  A    between atoms: _305  and  _308
REMARK  132  A    between atoms: _308  and  _309
REMARK  133  A    between atoms: _312  and  _314
REMARK  134  A    between atoms: _314  and  _315
REMARK  135  A    between atoms: _314  and  _317
REMARK  136  A    between atoms: _317  and  _318
REMARK  137  A    between atoms: _320  and  _322
REMARK  138  A    between atoms: _322  and  _323
REMARK  139  A    between atoms: _322  and  _325
REMARK  140  A    between atoms: _325  and  _326
REMARK  141  A    between atoms: _329  and  _331
REMARK  142  A    between atoms: _331  and  _332
REMARK  143  A    between atoms: _331  and  _334
REMARK  144  A    between atoms: _337  and  _339
REMARK  145  A    between atoms: _339  and  _340
REMARK  146  A    between atoms: _343  and  _345
REMARK  147  A    between atoms: _345  and  _346
REMARK  148  A    between atoms: _345  and  _348
REMARK  149  A    between atoms: _348  and  _349
REMARK  150  A    between atoms: _352  and  _354
REMARK  151  A    between atoms: _354  and  _355
REMARK  152  A    between atoms: _354  and  _357
REMARK  153  A    between atoms: _357  and  _358
REMARK  154  A    between atoms: _358  and  _359
REMARK  155  A    between atoms: _364  and  _366
REMARK  156  A    between atoms: _366  and  _367
REMARK  157  A    between atoms: _366  and  _369
REMARK  158  A    between atoms: _369  and  _370
REMARK  159  A    between atoms: _372  and  _374
REMARK  160  A    between atoms: _374  and  _375
REMARK  161  A    between atoms: _374  and  _377
REMARK  162  A    between atoms: _377  and  _378
REMARK  163  A    between atoms: _383  and  _385
REMARK  164  A    between atoms: _385  and  _386
REMARK  165  A    between atoms: _385  and  _388
REMARK  166  A    between atoms: _388  and  _389
REMARK  167  A    between atoms: _391  and  _393
REMARK  168  A    between atoms: _393  and  _394
REMARK  169  A    between atoms: _393  and  _396
REMARK  170  A    between atoms: _396  and  _397
REMARK  171  A    between atoms: _403  and  _405
REMARK  172  A    between atoms: _405  and  _406
REMARK  173  A    between atoms: _405  and  _408
REMARK  174  A    between atoms: _408  and  _409
REMARK  175  A    between atoms: _412  and  _414
REMARK  176  A    between atoms: _414  and  _415
REMARK  177  A    between atoms: _414  and  _417
REMARK  178  A    between atoms: _417  and  _418
REMARK  179  A    between atoms: _421  and  _423
REMARK  180  A    between atoms: _423  and  _424
REMARK  181  A    between atoms: _427  and  _429
REMARK  182  A    between atoms: _429  and  _430
REMARK  183  A    between atoms: _429  and  _432
REMARK  184  A    between atoms: _432  and  _433
REMARK  185  A    between atoms: _436  and  _438
REMARK  186  A    between atoms: _438  and  _439
REMARK  187  A    between atoms: _438  and  _441
REMARK  188  A    between atoms: _444  and  _446
REMARK  189  A    between atoms: _446  and  _447
REMARK  190  A    between atoms: _450  and  _452
REMARK  191  A    between atoms: _452  and  _453
REMARK  192  A    between atoms: _452  and  _455
REMARK  193  A    between atoms: _455  and  _456
REMARK  194  A    between atoms: _462  and  _464
REMARK  195  A    between atoms: _464  and  _465
REMARK  196  A    between atoms: _464  and  _467
REMARK  197  A    between atoms: _467  and  _468
REMARK  198  A    between atoms: _473  and  _474
REMARK  199  A    between atoms: _476  and  _478
REMARK  200  A    between atoms: _478  and  _479
REMARK  201  A    between atoms: _478  and  _481
REMARK  202  A    between atoms: _481  and  _482
REMARK  203  A    between atoms: _486  and  _487
REMARK                            x       y       z     vdW  Elec       q    Type
REMARK                         _______ _______ _______ _____ _____    ______ ____
ROOT
ATOM      1  O   HOH     1     -22.413  -7.718 -22.208  0.00  0.00    +0.000 OA
ENDROOT
TORSDOF 0
REMARK  Name = ../refined-set-2016/4yml/4yml_pocket.pdb
REMARK  203 active torsions:
REMARK  status: ('A' for Active; 'I' for Inactive)
REMARK    1  A    between atoms: _1  and  _3
REMARK    2  A    between atoms: _3  and  _4
REMARK    3  A    between atoms: _6  and  _8
REMARK    4  A    between atoms: _8  and  _9
REMARK    5  A    between atoms: _12  and  _14
REMARK    6  A    between atoms: _14  and  _15
REMARK    7  A    between atoms: _14  and  _17
REMARK    8  A    between atoms: _17  and  _18
REMARK    9  A    between atoms: _18  and  _19
REMARK   10  A    between atoms: _21  and  _23
REMARK   11  A    between atoms: _23  and  _24
REMARK   12  A    between atoms: _23  and  _26
REMARK   13  A    between atoms: _26  and  _27
REMARK   14  A    between atoms: _27  and  _28
REMARK   15  A    between atoms: _31  and  _33
REMARK   16  A    between atoms: _33  and  _34
REMARK   17  A    between atoms: _33  and  _36
REMARK   18  A    between atoms: _36  and  _37
REMARK   19  A    between atoms: _39  and  _41
REMARK   20  A    between atoms: _41  and  _42
REMARK   21  A    between atoms: _44  and  _46
REMARK   22  A    between atoms: _46  and  _47
REMARK   23  A    between atoms: _46  and  _49
REMARK   24  A    between atoms: _49  and  _50
REMARK   25  A    between atoms: _53  and  _55
REMARK   26  A    between atoms: _55  and  _56
REMARK   27  A    between atoms: _58  and  _60
REMARK   28  A    between atoms: _60  and  _61
REMARK   29  A    between atoms: _60  and  _63
REMARK   30  A    between atoms: _63  and  _64
REMARK   31  A    between atoms: _64  and  _65
REMARK   32  A    between atoms: _65  and  _66
REMARK   33  A    between atoms: _66  and  _67
REMARK   34  A    between atoms: _71  and  _73
REMARK   35  A    between atoms: _73  and  _74
REMARK   36  A    between atoms: _73  and  _76
REMARK   37  A    between atoms: _76  and  _77
REMARK   38  A    between atoms: _82  and  _84
REMARK   39  A    between atoms: _84  and  _85
REMARK   40  A    between atoms: _84  and  _87
REMARK   41  A    between atoms: _87  and  _88
REMARK   42  A    between atoms: _91  and  _93
REMARK   43  A    between atoms: _93  and  _94
REMARK   44  A    between atoms: _96  and  _98
REMARK   45  A    between atoms: _98  and  _99
REMARK   46  A    between atoms: _98  and  _101
REMARK   47  A    between atoms: _101  and  _102
REMARK   48  A    between atoms: _104  and  _106
REMARK   49  A    between atoms: _106  and  _107
REMARK   50  A    between atoms: _110  and  _112
REMARK   51  A    between atoms: _112  and  _113
REMARK   52  A    between atoms: _115  and  _117
REMARK   53  A    between atoms: _117  and  _118
REMARK   54  A    between atoms: _120  and  _122
REMARK   55  A    between atoms: _122  and  _123
REMARK   56  A    between atoms: _122  and  _125
REMARK   57  A    between atoms: _125  and  _126
REMARK   58  A    between atoms: _129  and  _131
REMARK   59  A    between atoms: _131  and  _132
REMARK   60  A    between atoms: _131  and  _134
REMARK   61  A    between atoms: _134  and  _135
REMARK   62  A    between atoms: _140  and  _142
REMARK   63  A    between atoms: _142  and  _143
REMARK   64  A    between atoms: _142  and  _145
REMARK   65  A    between atoms: _148  and  _150
REMARK   66  A    between atoms: _150  and  _151
REMARK   67  A    between atoms: _150  and  _153
REMARK   68  A    between atoms: _153  and  _154
REMARK   69  A    between atoms: _156  and  _158
REMARK   70  A    between atoms: _158  and  _159
REMARK   71  A    between atoms: _161  and  _163
REMARK   72  A    between atoms: _163  and  _164
REMARK   73  A    between atoms: _163  and  _166
REMARK   74  A    between atoms: _166  and  _167
REMARK   75  A    between atoms: _170  and  _172
REMARK   76  A    between atoms: _172  and  _173
REMARK   77  A    between atoms: _176  and  _178
REMARK   78  A    between atoms: _178  and  _179
REMARK   79  A    between atoms: _178  and  _181
REMARK   80  A    between atoms: _181  and  _182
REMARK   81  A    between atoms: _188  and  _190
REMARK   82  A    between atoms: _190  and  _191
REMARK   83  A    between atoms: _190  and  _193
REMARK   84  A    between atoms: _193  and  _194
REMARK   85  A    between atoms: _197  and  _199
REMARK   86  A    between atoms: _199  and  _200
REMARK   87  A    between atoms: _199  and  _202
REMARK   88  A    between atoms: _202  and  _203
REMARK   89  A    between atoms: _208  and  _210
REMARK   90  A    between atoms: _210  and  _211
REMARK   91  A    between atoms: _213  and  _215
REMARK   92  A    between atoms: _215  and  _216
REMARK   93  A    between atoms: _215  and  _218
REMARK   94  A    between atoms: _218  and  _219
REMARK   95  A    between atoms: _222  and  _224
REMARK   96  A    between atoms: _224  and  _225
REMARK   97  A    between atoms: _224  and  _227
REMARK   98  A    between atoms: _227  and  _228
REMARK   99  A    between atoms: _231  and  _233
REMARK  100  A    between atoms: _233  and  _234
REMARK  101  A    between atoms: _237  and  _239
REMARK  102  A    between atoms: _239  and  _240
REMARK  103  A    between atoms: _239  and  _242
REMARK  104  A    between atoms: _245  and  _247
REMARK  105  A    between atoms: _247  and  _248
REMARK  106  A    between atoms: _247  and  _250
REMARK  107  A    between atoms: _250  and  _251
REMARK  108  A    between atoms: _251  and  _252
REMARK  109  A    between atoms: _255  and  _257
REMARK  110  A    between atoms: _257  and  _258
REMARK  111  A    between atoms: _257  and  _260
REMARK  112  A    between atoms: _260  and  _261
REMARK  113  A    between atoms: _261  and  _262
REMARK  114  A    between atoms: _264  and  _266
REMARK  115  A    between atoms: _266  and  _267
REMARK  116  A    between atoms: _266  and  _269
REMARK  117  A    between atoms: _269  and  _270
REMARK  118  A    between atoms: _270  and  _271
REMARK  119  A    between atoms: _274  and  _276
REMARK  120  A    between atoms: _276  and  _277
REMARK  121  A    between atoms: _280  and  _282
REMARK  122  A    between atoms: _282  and  _283
REMARK  123  A    between atoms: _282  and  _285
REMARK  124  A    between atoms: _285  and  _286
REMARK  125  A    between atoms: _286  and  _287
REMARK  126  A    between atoms: _287  and  _288
REMARK  127  A    between atoms: _297  and  _299
REMARK  128  A    between atoms: _299  and  _300
REMARK  129  A    between atoms: _303  and  _305
REMARK  130  A    between atoms: _305  and  _306
REMARK  131  A    between atoms: _305  and  _308
REMARK  132  A    between atoms: _308  and  _309
REMARK  133  A    between atoms: _312  and  _314
REMARK  134  A    between atoms: _314  and  _315
REMARK  135  A    between atoms: _314  and  _317
REMARK  136  A    between atoms: _317  and  _318
REMARK  137  A    between atoms: _320  and  _322
REMARK  138  A    between atoms: _322  and  _323
REMARK  139  A    between atoms: _322  and  _325
REMARK  140  A    between atoms: _325  and  _326
REMARK  141  A    between atoms: _329  and  _331
REMARK  142  A    between atoms: _331  and  _332
REMARK  143  A    between atoms: _331  and  _334
REMARK  144  A    between atoms: _337  and  _339
REMARK  145  A    between atoms: _339  and  _340
REMARK  146  A    between atoms: _343  and  _345
REMARK  147  A    between atoms: _345  and  _346
REMARK  148  A    between atoms: _345  and  _348
REMARK  149  A    between atoms: _348  and  _349
REMARK  150  A    between atoms: _352  and  _354
REMARK  151  A    between atoms: _354  and  _355
REMARK  152  A    between atoms: _354  and  _357
REMARK  153  A    between atoms: _357  and  _358
REMARK  154  A    between atoms: _358  and  _359
REMARK  155  A    between atoms: _364  and  _366
REMARK  156  A    between atoms: _366  and  _367
REMARK  157  A    between atoms: _366  and  _369
REMARK  158  A    between atoms: _369  and  _370
REMARK  159  A    between atoms: _372  and  _374
REMARK  160  A    between atoms: _374  and  _375
REMARK  161  A    between atoms: _374  and  _377
REMARK  162  A    between atoms: _377  and  _378
REMARK  163  A    between atoms: _383  and  _385
REMARK  164  A    between atoms: _385  and  _386
REMARK  165  A    between atoms: _385  and  _388
REMARK  166  A    between atoms: _388  and  _389
REMARK  167  A    between atoms: _391  and  _393
REMARK  168  A    between atoms: _393  and  _394
REMARK  169  A    between atoms: _393  and  _396
REMARK  170  A    between atoms: _396  and  _397
REMARK  171  A    between atoms: _403  and  _405
REMARK  172  A    between atoms: _405  and  _406
REMARK  173  A    between atoms: _405  and  _408
REMARK  174  A    between atoms: _408  and  _409
REMARK  175  A    between atoms: _412  and  _414
REMARK  176  A    between atoms: _414  and  _415
REMARK  177  A    between atoms: _414  and  _417
REMARK  178  A    between atoms: _417  and  _418
REMARK  179  A    between atoms: _421  and  _423
REMARK  180  A    between atoms: _423  and  _424
REMARK  181  A    between atoms: _427  and  _429
REMARK  182  A    between atoms: _429  and  _430
REMARK  183  A    between atoms: _429  and  _432
REMARK  184  A    between atoms: _432  and  _433
REMARK  185  A    between atoms: _436  and  _438
REMARK  186  A    between atoms: _438  and  _439
REMARK  187  A    between atoms: _438  and  _441
REMARK  188  A    between atoms: _444  and  _446
REMARK  189  A    between atoms: _446  and  _447
REMARK  190  A    between atoms: _450  and  _452
REMARK  191  A    between atoms: _452  and  _453
REMARK  192  A    between atoms: _452  and  _455
REMARK  193  A    between atoms: _455  and  _456
REMARK  194  A    between atoms: _462  and  _464
REMARK  195  A    between atoms: _464  and  _465
REMARK  196  A    between atoms: _464  and  _467
REMARK  197  A    between atoms: _467  and  _468
REMARK  198  A    between atoms: _473  and  _474
REMARK  199  A    between atoms: _476  and  _478
REMARK  200  A    between atoms: _478  and  _479
REMARK  201  A    between atoms: _478  and  _481
REMARK  202  A    between atoms: _481  and  _482
REMARK  203  A    between atoms: _486  and  _487
REMARK                            x       y       z     vdW  Elec       q    Type
REMARK                         _______ _______ _______ _____ _____    ______ ____
ROOT
ATOM      1  O   HOH     1     -29.674   6.754 -26.860  0.00  0.00    +0.000 OA
ENDROOT
TORSDOF 0
REMARK  Name = ../refined-set-2016/4yml/4yml_pocket.pdb
REMARK  203 active torsions:
REMARK  status: ('A' for Active; 'I' for Inactive)
REMARK    1  A    between atoms: _1  and  _3
REMARK    2  A    between atoms: _3  and  _4
REMARK    3  A    between atoms: _6  and  _8
REMARK    4  A    between atoms: _8  and  _9
REMARK    5  A    between atoms: _12  and  _14
REMARK    6  A    between atoms: _14  and  _15
REMARK    7  A    between atoms: _14  and  _17
REMARK    8  A    between atoms: _17  and  _18
REMARK    9  A    between atoms: _18  and  _19
REMARK   10  A    between atoms: _21  and  _23
REMARK   11  A    between atoms: _23  and  _24
REMARK   12  A    between atoms: _23  and  _26
REMARK   13  A    between atoms: _26  and  _27
REMARK   14  A    between atoms: _27  and  _28
REMARK   15  A    between atoms: _31  and  _33
REMARK   16  A    between atoms: _33  and  _34
REMARK   17  A    between atoms: _33  and  _36
REMARK   18  A    between atoms: _36  and  _37
REMARK   19  A    between atoms: _39  and  _41
REMARK   20  A    between atoms: _41  and  _42
REMARK   21  A    between atoms: _44  and  _46
REMARK   22  A    between atoms: _46  and  _47
REMARK   23  A    between atoms: _46  and  _49
REMARK   24  A    between atoms: _49  and  _50
REMARK   25  A    between atoms: _53  and  _55
REMARK   26  A    between atoms: _55  and  _56
REMARK   27  A    between atoms: _58  and  _60
REMARK   28  A    between atoms: _60  and  _61
REMARK   29  A    between atoms: _60  and  _63
REMARK   30  A    between atoms: _63  and  _64
REMARK   31  A    between atoms: _64  and  _65
REMARK   32  A    between atoms: _65  and  _66
REMARK   33  A    between atoms: _66  and  _67
REMARK   34  A    between atoms: _71  and  _73
REMARK   35  A    between atoms: _73  and  _74
REMARK   36  A    between atoms: _73  and  _76
REMARK   37  A    between atoms: _76  and  _77
REMARK   38  A    between atoms: _82  and  _84
REMARK   39  A    between atoms: _84  and  _85
REMARK   40  A    between atoms: _84  and  _87
REMARK   41  A    between atoms: _87  and  _88
REMARK   42  A    between atoms: _91  and  _93
REMARK   43  A    between atoms: _93  and  _94
REMARK   44  A    between atoms: _96  and  _98
REMARK   45  A    between atoms: _98  and  _99
REMARK   46  A    between atoms: _98  and  _101
REMARK   47  A    between atoms: _101  and  _102
REMARK   48  A    between atoms: _104  and  _106
REMARK   49  A    between atoms: _106  and  _107
REMARK   50  A    between atoms: _110  and  _112
REMARK   51  A    between atoms: _112  and  _113
REMARK   52  A    between atoms: _115  and  _117
REMARK   53  A    between atoms: _117  and  _118
REMARK   54  A    between atoms: _120  and  _122
REMARK   55  A    between atoms: _122  and  _123
REMARK   56  A    between atoms: _122  and  _125
REMARK   57  A    between atoms: _125  and  _126
REMARK   58  A    between atoms: _129  and  _131
REMARK   59  A    between atoms: _131  and  _132
REMARK   60  A    between atoms: _131  and  _134
REMARK   61  A    between atoms: _134  and  _135
REMARK   62  A    between atoms: _140  and  _142
REMARK   63  A    between atoms: _142  and  _143
REMARK   64  A    between atoms: _142  and  _145
REMARK   65  A    between atoms: _148  and  _150
REMARK   66  A    between atoms: _150  and  _151
REMARK   67  A    between atoms: _150  and  _153
REMARK   68  A    between atoms: _153  and  _154
REMARK   69  A    between atoms: _156  and  _158
REMARK   70  A    between atoms: _158  and  _159
REMARK   71  A    between atoms: _161  and  _163
REMARK   72  A    between atoms: _163  and  _164
REMARK   73  A    between atoms: _163  and  _166
REMARK   74  A    between atoms: _166  and  _167
REMARK   75  A    between atoms: _170  and  _172
REMARK   76  A    between atoms: _172  and  _173
REMARK   77  A    between atoms: _176  and  _178
REMARK   78  A    between atoms: _178  and  _179
REMARK   79  A    between atoms: _178  and  _181
REMARK   80  A    between atoms: _181  and  _182
REMARK   81  A    between atoms: _188  and  _190
REMARK   82  A    between atoms: _190  and  _191
REMARK   83  A    between atoms: _190  and  _193
REMARK   84  A    between atoms: _193  and  _194
REMARK   85  A    between atoms: _197  and  _199
REMARK   86  A    between atoms: _199  and  _200
REMARK   87  A    between atoms: _199  and  _202
REMARK   88  A    between atoms: _202  and  _203
REMARK   89  A    between atoms: _208  and  _210
REMARK   90  A    between atoms: _210  and  _211
REMARK   91  A    between atoms: _213  and  _215
REMARK   92  A    between atoms: _215  and  _216
REMARK   93  A    between atoms: _215  and  _218
REMARK   94  A    between atoms: _218  and  _219
REMARK   95  A    between atoms: _222  and  _224
REMARK   96  A    between atoms: _224  and  _225
REMARK   97  A    between atoms: _224  and  _227
REMARK   98  A    between atoms: _227  and  _228
REMARK   99  A    between atoms: _231  and  _233
REMARK  100  A    between atoms: _233  and  _234
REMARK  101  A    between atoms: _237  and  _239
REMARK  102  A    between atoms: _239  and  _240
REMARK  103  A    between atoms: _239  and  _242
REMARK  104  A    between atoms: _245  and  _247
REMARK  105  A    between atoms: _247  and  _248
REMARK  106  A    between atoms: _247  and  _250
REMARK  107  A    between atoms: _250  and  _251
REMARK  108  A    between atoms: _251  and  _252
REMARK  109  A    between atoms: _255  and  _257
REMARK  110  A    between atoms: _257  and  _258
REMARK  111  A    between atoms: _257  and  _260
REMARK  112  A    between atoms: _260  and  _261
REMARK  113  A    between atoms: _261  and  _262
REMARK  114  A    between atoms: _264  and  _266
REMARK  115  A    between atoms: _266  and  _267
REMARK  116  A    between atoms: _266  and  _269
REMARK  117  A    between atoms: _269  and  _270
REMARK  118  A    between atoms: _270  and  _271
REMARK  119  A    between atoms: _274  and  _276
REMARK  120  A    between atoms: _276  and  _277
REMARK  121  A    between atoms: _280  and  _282
REMARK  122  A    between atoms: _282  and  _283
REMARK  123  A    between atoms: _282  and  _285
REMARK  124  A    between atoms: _285  and  _286
REMARK  125  A    between atoms: _286  and  _287
REMARK  126  A    between atoms: _287  and  _288
REMARK  127  A    between atoms: _297  and  _299
REMARK  128  A    between atoms: _299  and  _300
REMARK  129  A    between atoms: _303  and  _305
REMARK  130  A    between atoms: _305  and  _306
REMARK  131  A    between atoms: _305  and  _308
REMARK  132  A    between atoms: _308  and  _309
REMARK  133  A    between atoms: _312  and  _314
REMARK  134  A    between atoms: _314  and  _315
REMARK  135  A    between atoms: _314  and  _317
REMARK  136  A    between atoms: _317  and  _318
REMARK  137  A    between atoms: _320  and  _322
REMARK  138  A    between atoms: _322  and  _323
REMARK  139  A    between atoms: _322  and  _325
REMARK  140  A    between atoms: _325  and  _326
REMARK  141  A    between atoms: _329  and  _331
REMARK  142  A    between atoms: _331  and  _332
REMARK  143  A    between atoms: _331  and  _334
REMARK  144  A    between atoms: _337  and  _339
REMARK  145  A    between atoms: _339  and  _340
REMARK  146  A    between atoms: _343  and  _345
REMARK  147  A    between atoms: _345  and  _346
REMARK  148  A    between atoms: _345  and  _348
REMARK  149  A    between atoms: _348  and  _349
REMARK  150  A    between atoms: _352  and  _354
REMARK  151  A    between atoms: _354  and  _355
REMARK  152  A    between atoms: _354  and  _357
REMARK  153  A    between atoms: _357  and  _358
REMARK  154  A    between atoms: _358  and  _359
REMARK  155  A    between atoms: _364  and  _366
REMARK  156  A    between atoms: _366  and  _367
REMARK  157  A    between atoms: _366  and  _369
REMARK  158  A    between atoms: _369  and  _370
REMARK  159  A    between atoms: _372  and  _374
REMARK  160  A    between atoms: _374  and  _375
REMARK  161  A    between atoms: _374  and  _377
REMARK  162  A    between atoms: _377  and  _378
REMARK  163  A    between atoms: _383  and  _385
REMARK  164  A    between atoms: _385  and  _386
REMARK  165  A    between atoms: _385  and  _388
REMARK  166  A    between atoms: _388  and  _389
REMARK  167  A    between atoms: _391  and  _393
REMARK  168  A    between atoms: _393  and  _394
REMARK  169  A    between atoms: _393  and  _396
REMARK  170  A    between atoms: _396  and  _397
REMARK  171  A    between atoms: _403  and  _405
REMARK  172  A    between atoms: _405  and  _406
REMARK  173  A    between atoms: _405  and  _408
REMARK  174  A    between atoms: _408  and  _409
REMARK  175  A    between atoms: _412  and  _414
REMARK  176  A    between atoms: _414  and  _415
REMARK  177  A    between atoms: _414  and  _417
REMARK  178  A    between atoms: _417  and  _418
REMARK  179  A    between atoms: _421  and  _423
REMARK  180  A    between atoms: _423  and  _424
REMARK  181  A    between atoms: _427  and  _429
REMARK  182  A    between atoms: _429  and  _430
REMARK  183  A    between atoms: _429  and  _432
REMARK  184  A    between atoms: _432  and  _433
REMARK  185  A    between atoms: _436  and  _438
REMARK  186  A    between atoms: _438  and  _439
REMARK  187  A    between atoms: _438  and  _441
REMARK  188  A    between atoms: _444  and  _446
REMARK  189  A    between atoms: _446  and  _447
REMARK  190  A    between atoms: _450  and  _452
REMARK  191  A    between atoms: _452  and  _453
REMARK  192  A    between atoms: _452  and  _455
REMARK  193  A    between atoms: _455  and  _456
REMARK  194  A    between atoms: _462  and  _464
REMARK  195  A    between atoms: _464  and  _465
REMARK  196  A    between atoms: _464  and  _467
REMARK  197  A    between atoms: _467  and  _468
REMARK  198  A    between atoms: _473  and  _474
REMARK  199  A    between atoms: _476  and  _478
REMARK  200  A    between atoms: _478  and  _479
REMARK  201  A    between atoms: _478  and  _481
REMARK  202  A    between atoms: _481  and  _482
REMARK  203  A    between atoms: _486  and  _487
REMARK                            x       y       z     vdW  Elec       q    Type
REMARK                         _______ _______ _______ _____ _____    ______ ____
ROOT
ATOM      1  O   HOH     1     -26.181  -0.427 -31.759  0.00  0.00    +0.000 OA
ENDROOT
TORSDOF 0
