REMARK  Name = ../refined-set-2016/3jzj/3jzj_pocket.pdb
REMARK  249 active torsions:
REMARK  status: ('A' for Active; 'I' for Inactive)
REMARK    1  A    between atoms: _1  and  _3
REMARK    2  A    between atoms: _3  and  _4
REMARK    3  A    between atoms: _3  and  _6
REMARK    4  A    between atoms: _6  and  _7
REMARK    5  A    between atoms: _10  and  _12
REMARK    6  A    between atoms: _12  and  _13
REMARK    7  A    between atoms: _12  and  _15
REMARK    8  A    between atoms: _15  and  _16
REMARK    9  A    between atoms: _19  and  _21
REMARK   10  A    between atoms: _21  and  _22
REMARK   11  A    between atoms: _21  and  _24
REMARK   12  A    between atoms: _24  and  _25
REMARK   13  A    between atoms: _27  and  _29
REMARK   14  A    between atoms: _29  and  _30
REMARK   15  A    between atoms: _29  and  _32
REMARK   16  A    between atoms: _32  and  _33
REMARK   17  A    between atoms: _38  and  _40
REMARK   18  A    between atoms: _40  and  _41
REMARK   19  A    between atoms: _40  and  _43
REMARK   20  A    between atoms: _43  and  _44
REMARK   21  A    between atoms: _44  and  _45
REMARK   22  A    between atoms: _48  and  _50
REMARK   23  A    between atoms: _50  and  _51
REMARK   24  A    between atoms: _54  and  _56
REMARK   25  A    between atoms: _56  and  _57
REMARK   26  A    between atoms: _56  and  _59
REMARK   27  A    between atoms: _59  and  _60
REMARK   28  A    between atoms: _60  and  _61
REMARK   29  A    between atoms: _64  and  _66
REMARK   30  A    between atoms: _66  and  _67
REMARK   31  A    between atoms: _66  and  _69
REMARK   32  A    between atoms: _69  and  _70
REMARK   33  A    between atoms: _70  and  _71
REMARK   34  A    between atoms: _71  and  _72
REMARK   35  A    between atoms: _72  and  _73
REMARK   36  A    between atoms: _77  and  _79
REMARK   37  A    between atoms: _79  and  _80
REMARK   38  A    between atoms: _79  and  _82
REMARK   39  A    between atoms: _82  and  _83
REMARK   40  A    between atoms: _88  and  _89
REMARK   41  A    between atoms: _91  and  _93
REMARK   42  A    between atoms: _93  and  _94
REMARK   43  A    between atoms: _93  and  _96
REMARK   44  A    between atoms: _96  and  _97
REMARK   45  A    between atoms: _102  and  _104
REMARK   46  A    between atoms: _104  and  _105
REMARK   47  A    between atoms: _104  and  _107
REMARK   48  A    between atoms: _111  and  _112
REMARK   49  A    between atoms: _117  and  _119
REMARK   50  A    between atoms: _119  and  _120
REMARK   51  A    between atoms: _119  and  _122
REMARK   52  A    between atoms: _122  and  _123
REMARK   53  A    between atoms: _129  and  _131
REMARK   54  A    between atoms: _131  and  _132
REMARK   55  A    between atoms: _134  and  _136
REMARK   56  A    between atoms: _136  and  _137
REMARK   57  A    between atoms: _136  and  _139
REMARK   58  A    between atoms: _139  and  _140
REMARK   59  A    between atoms: _140  and  _141
REMARK   60  A    between atoms: _144  and  _146
REMARK   61  A    between atoms: _146  and  _147
REMARK   62  A    between atoms: _150  and  _152
REMARK   63  A    between atoms: _152  and  _153
REMARK   64  A    between atoms: _152  and  _155
REMARK   65  A    between atoms: _155  and  _156
REMARK   66  A    between atoms: _161  and  _163
REMARK   67  A    between atoms: _163  and  _164
REMARK   68  A    between atoms: _167  and  _169
REMARK   69  A    between atoms: _169  and  _170
REMARK   70  A    between atoms: _169  and  _172
REMARK   71  A    between atoms: _172  and  _173
REMARK   72  A    between atoms: _173  and  _174
REMARK   73  A    between atoms: _174  and  _175
REMARK   74  A    between atoms: _175  and  _176
REMARK   75  A    between atoms: _180  and  _182
REMARK   76  A    between atoms: _182  and  _183
REMARK   77  A    between atoms: _182  and  _185
REMARK   78  A    between atoms: _185  and  _186
REMARK   79  A    between atoms: _186  and  _187
REMARK   80  A    between atoms: _187  and  _188
REMARK   81  A    between atoms: _188  and  _189
REMARK   82  A    between atoms: _193  and  _195
REMARK   83  A    between atoms: _195  and  _196
REMARK   84  A    between atoms: _195  and  _198
REMARK   85  A    between atoms: _198  and  _199
REMARK   86  A    between atoms: _199  and  _200
REMARK   87  A    between atoms: _200  and  _201
REMARK   88  A    between atoms: _210  and  _212
REMARK   89  A    between atoms: _212  and  _213
REMARK   90  A    between atoms: _212  and  _215
REMARK   91  A    between atoms: _215  and  _216
REMARK   92  A    between atoms: _216  and  _217
REMARK   93  A    between atoms: _220  and  _222
REMARK   94  A    between atoms: _222  and  _223
REMARK   95  A    between atoms: _222  and  _225
REMARK   96  A    between atoms: _228  and  _230
REMARK   97  A    between atoms: _230  and  _231
REMARK   98  A    between atoms: _234  and  _236
REMARK   99  A    between atoms: _236  and  _237
REMARK  100  A    between atoms: _236  and  _239
REMARK  101  A    between atoms: _239  and  _240
REMARK  102  A    between atoms: _250  and  _252
REMARK  103  A    between atoms: _252  and  _253
REMARK  104  A    between atoms: _252  and  _255
REMARK  105  A    between atoms: _258  and  _260
REMARK  106  A    between atoms: _260  and  _261
REMARK  107  A    between atoms: _260  and  _263
REMARK  108  A    between atoms: _263  and  _264
REMARK  109  A    between atoms: _267  and  _269
REMARK  110  A    between atoms: _269  and  _270
REMARK  111  A    between atoms: _269  and  _272
REMARK  112  A    between atoms: _272  and  _273
REMARK  113  A    between atoms: _279  and  _281
REMARK  114  A    between atoms: _281  and  _282
REMARK  115  A    between atoms: _281  and  _284
REMARK  116  A    between atoms: _284  and  _285
REMARK  117  A    between atoms: _285  and  _286
REMARK  118  A    between atoms: _291  and  _293
REMARK  119  A    between atoms: _293  and  _294
REMARK  120  A    between atoms: _293  and  _296
REMARK  121  A    between atoms: _299  and  _301
REMARK  122  A    between atoms: _301  and  _302
REMARK  123  A    between atoms: _301  and  _304
REMARK  124  A    between atoms: _304  and  _305
REMARK  125  A    between atoms: _308  and  _310
REMARK  126  A    between atoms: _310  and  _311
REMARK  127  A    between atoms: _310  and  _313
REMARK  128  A    between atoms: _313  and  _314
REMARK  129  A    between atoms: _317  and  _319
REMARK  130  A    between atoms: _319  and  _320
REMARK  131  A    between atoms: _319  and  _322
REMARK  132  A    between atoms: _322  and  _323
REMARK  133  A    between atoms: _326  and  _328
REMARK  134  A    between atoms: _328  and  _329
REMARK  135  A    between atoms: _328  and  _331
REMARK  136  A    between atoms: _331  and  _332
REMARK  137  A    between atoms: _335  and  _337
REMARK  138  A    between atoms: _337  and  _338
REMARK  139  A    between atoms: _337  and  _340
REMARK  140  A    between atoms: _340  and  _341
REMARK  141  A    between atoms: _341  and  _342
REMARK  142  A    between atoms: _342  and  _343
REMARK  143  A    between atoms: _352  and  _354
REMARK  144  A    between atoms: _354  and  _355
REMARK  145  A    between atoms: _354  and  _357
REMARK  146  A    between atoms: _357  and  _358
REMARK  147  A    between atoms: _361  and  _363
REMARK  148  A    between atoms: _363  and  _364
REMARK  149  A    between atoms: _363  and  _366
REMARK  150  A    between atoms: _366  and  _367
REMARK  151  A    between atoms: _371  and  _372
REMARK  152  A    between atoms: _377  and  _379
REMARK  153  A    between atoms: _379  and  _380
REMARK  154  A    between atoms: _379  and  _382
REMARK  155  A    between atoms: _382  and  _383
REMARK  156  A    between atoms: _388  and  _389
REMARK  157  A    between atoms: _391  and  _393
REMARK  158  A    between atoms: _393  and  _394
REMARK  159  A    between atoms: _393  and  _396
REMARK  160  A    between atoms: _396  and  _397
REMARK  161  A    between atoms: _407  and  _409
REMARK  162  A    between atoms: _409  and  _410
REMARK  163  A    between atoms: _409  and  _412
REMARK  164  A    between atoms: _412  and  _413
REMARK  165  A    between atoms: _419  and  _421
REMARK  166  A    between atoms: _421  and  _422
REMARK  167  A    between atoms: _421  and  _424
REMARK  168  A    between atoms: _424  and  _425
REMARK  169  A    between atoms: _428  and  _430
REMARK  170  A    between atoms: _430  and  _431
REMARK  171  A    between atoms: _430  and  _433
REMARK  172  A    between atoms: _433  and  _434
REMARK  173  A    between atoms: _444  and  _446
REMARK  174  A    between atoms: _446  and  _447
REMARK  175  A    between atoms: _446  and  _449
REMARK  176  A    between atoms: _449  and  _450
REMARK  177  A    between atoms: _450  and  _451
REMARK  178  A    between atoms: _453  and  _455
REMARK  179  A    between atoms: _455  and  _456
REMARK  180  A    between atoms: _455  and  _458
REMARK  181  A    between atoms: _458  and  _459
REMARK  182  A    between atoms: _464  and  _466
REMARK  183  A    between atoms: _466  and  _467
REMARK  184  A    between atoms: _470  and  _471
REMARK  185  A    between atoms: _476  and  _478
REMARK  186  A    between atoms: _478  and  _479
REMARK  187  A    between atoms: _478  and  _481
REMARK  188  A    between atoms: _481  and  _482
REMARK  189  A    between atoms: _492  and  _494
REMARK  190  A    between atoms: _494  and  _495
REMARK  191  A    between atoms: _499  and  _500
REMARK  192  A    between atoms: _505  and  _507
REMARK  193  A    between atoms: _507  and  _508
REMARK  194  A    between atoms: _507  and  _510
REMARK  195  A    between atoms: _510  and  _511
REMARK  196  A    between atoms: _511  and  _512
REMARK  197  A    between atoms: _517  and  _519
REMARK  198  A    between atoms: _519  and  _520
REMARK  199  A    between atoms: _522  and  _524
REMARK  200  A    between atoms: _524  and  _525
REMARK  201  A    between atoms: _527  and  _529
REMARK  202  A    between atoms: _529  and  _530
REMARK  203  A    between atoms: _529  and  _532
REMARK  204  A    between atoms: _532  and  _533
REMARK  205  A    between atoms: _543  and  _545
REMARK  206  A    between atoms: _545  and  _546
REMARK  207  A    between atoms: _545  and  _548
REMARK  208  A    between atoms: _548  and  _549
REMARK  209  A    between atoms: _552  and  _554
REMARK  210  A    between atoms: _554  and  _555
REMARK  211  A    between atoms: _554  and  _557
REMARK  212  A    between atoms: _557  and  _558
REMARK  213  A    between atoms: _561  and  _563
REMARK  214  A    between atoms: _563  and  _564
REMARK  215  A    between atoms: _563  and  _566
REMARK  216  A    between atoms: _566  and  _567
REMARK  217  A    between atoms: _567  and  _568
REMARK  218  A    between atoms: _568  and  _569
REMARK  219  A    between atoms: _578  and  _580
REMARK  220  A    between atoms: _580  and  _581
REMARK  221  A    between atoms: _580  and  _583
REMARK  222  A    between atoms: _583  and  _584
REMARK  223  A    between atoms: _594  and  _596
REMARK  224  A    between atoms: _596  and  _597
REMARK  225  A    between atoms: _599  and  _601
REMARK  226  A    between atoms: _601  and  _602
REMARK  227  A    between atoms: _601  and  _604
REMARK  228  A    between atoms: _604  and  _605
REMARK  229  A    between atoms: _610  and  _612
REMARK  230  A    between atoms: _612  and  _613
REMARK  231  A    between atoms: _616  and  _618
REMARK  232  A    between atoms: _618  and  _619
REMARK  233  A    between atoms: _618  and  _621
REMARK  234  A    between atoms: _621  and  _622
REMARK  235  A    between atoms: _625  and  _627
REMARK  236  A    between atoms: _627  and  _628
REMARK  237  A    between atoms: _627  and  _630
REMARK  238  A    between atoms: _630  and  _631
REMARK  239  A    between atoms: _637  and  _639
REMARK  240  A    between atoms: _639  and  _640
REMARK  241  A    between atoms: _639  and  _642
REMARK  242  A    between atoms: _642  and  _643
REMARK  243  A    between atoms: _643  and  _644
REMARK  244  A    between atoms: _647  and  _649
REMARK  245  A    between atoms: _649  and  _650
REMARK  246  A    between atoms: _649  and  _652
REMARK  247  A    between atoms: _652  and  _653
REMARK  248  A    between atoms: _653  and  _654
REMARK  249  A    between atoms: _654  and  _655
REMARK                            x       y       z     vdW  Elec       q    Type
REMARK                         _______ _______ _______ _____ _____    ______ ____
ROOT
ATOM      1  C   ASN A   4      -5.462   0.427  10.214  0.00  0.00    +0.241 C 
ATOM      2  N   GLU A   5      -6.701   0.728   9.848  0.00  0.00    -0.297 N 
ATOM      3  H   GLU A   5      -7.492   0.444  10.461  0.00  0.00    +0.150 HD
ATOM      4  O   ASN A   4      -4.464   0.816   9.625  0.00  0.00    -0.273 OA
ENDROOT
BRANCH   2   5
ATOM      5  CA  GLU A   5      -6.985   1.445   8.612  0.00  0.00    +0.149 C 
BRANCH   5   6
ATOM      6  C   GLU A   5      -6.300   2.830   8.617  0.00  0.00    +0.241 C 
ATOM      7  N   ALA A   6      -6.148   3.457   9.795  0.00  0.00    -0.297 N 
ATOM      8  H   ALA A   6      -6.457   2.977  10.664  0.00  0.00    +0.150 HD
ATOM      9  O   GLU A   5      -5.915   3.322   7.546  0.00  0.00    -0.273 OA
BRANCH   7  10
ATOM     10  CA  ALA A   6      -5.562   4.795   9.895  0.00  0.00    +0.149 C 
ATOM     11  CB  ALA A   6      -6.128   5.540  11.119  0.00  0.00    +0.031 C 
BRANCH  10  12
ATOM     12  C   ALA A   6      -4.028   4.734   9.920  0.00  0.00    +0.241 C 
ATOM     13  N   GLU A   7      -3.505   3.573  10.326  0.00  0.00    -0.297 N 
ATOM     14  H   GLU A   7      -4.135   2.766  10.508  0.00  0.00    +0.150 HD
ATOM     15  O   ALA A   6      -3.343   5.745   9.637  0.00  0.00    -0.273 OA
BRANCH  13  16
ATOM     16  CA  GLU A   7      -2.063   3.415  10.520  0.00  0.00    +0.149 C 
BRANCH  16  17
ATOM     17  C   GLU A   7      -1.351   2.845   9.285  0.00  0.00    +0.241 C 
ATOM     18  O   GLU A   7      -0.123   3.067   9.112  0.00  0.00    -0.273 OA
ATOM     19  N   LYS A   8      -2.092   2.066   8.478  0.00  0.00    -0.298 N 
ATOM     20  H   LYS A   8      -3.129   2.103   8.554  0.00  0.00    +0.150 HD
BRANCH  19  21
ATOM     21  CA  LYS A   8      -1.476   1.155   7.482  0.00  0.00    +0.137 C 
BRANCH  21  22
ATOM     22  C   LYS A   8      -0.788   1.851   6.333  0.00  0.00    +0.227 C 
ATOM     23  O   LYS A   8       0.161   1.266   5.812  0.00  0.00    -0.286 OA
ENDBRANCH  21  22
BRANCH  21  24
ATOM     24  CB  LYS A   8      -2.460   0.066   6.941  0.00  0.00    +0.028 C 
BRANCH  24  25
ATOM     25  CG  LYS A   8      -3.635   0.571   6.072  0.00  0.00    -0.000 C 
BRANCH  25  26
ATOM     26  CD  LYS A   8      -4.564  -0.594   5.797  0.00  0.00    -0.024 C 
BRANCH  26  27
ATOM     27  CE  LYS A   8      -5.799  -0.202   4.966  0.00  0.00    -0.086 C 
BRANCH  27  28
ATOM     28  NZ  LYS A   8      -6.722  -1.377   4.718  0.00  0.00    +0.380 N 
ATOM     29  HZ1 LYS A   8      -7.053  -1.755   5.629  0.00  0.00    -0.089 HD
ATOM     30  HZ2 LYS A   8      -6.207  -2.118   4.201  0.00  0.00    -0.089 HD
ATOM     31  HZ3 LYS A   8      -7.538  -1.063   4.155  0.00  0.00    -0.089 HD
ENDBRANCH  27  28
ENDBRANCH  26  27
ENDBRANCH  25  26
ENDBRANCH  24  25
ENDBRANCH  21  24
ENDBRANCH  19  21
ENDBRANCH  16  17
BRANCH  16  32
ATOM     32  CB  GLU A   7      -1.751   2.509  11.722  0.00  0.00    +0.041 C 
BRANCH  32  33
ATOM     33  CG  GLU A   7      -2.289   2.989  13.075  0.00  0.00    +0.116 C 
BRANCH  33  34
ATOM     34  CD  GLU A   7      -2.166   1.893  14.089  0.00  0.00    +0.365 C 
ATOM     35  OE2 GLU A   7      -1.640   2.130  15.203  0.00  0.00    -0.246 OA
ATOM     36  OE1 GLU A   7      -2.552   0.746  13.816  0.00  0.00    -0.246 OA
ENDBRANCH  33  34
ENDBRANCH  32  33
ENDBRANCH  16  32
ENDBRANCH  13  16
ENDBRANCH  10  12
ENDBRANCH   7  10
ENDBRANCH   5   6
BRANCH   5  37
ATOM     37  CB  GLU A   5      -8.515   1.528   8.412  0.00  0.00    +0.041 C 
BRANCH  37  38
ATOM     38  CG  GLU A   5      -8.935   1.993   7.012  0.00  0.00    +0.116 C 
BRANCH  38  39
ATOM     39  CD  GLU A   5      -8.837   3.498   6.870  0.00  0.00    +0.365 C 
ATOM     40  OE2 GLU A   5      -9.089   4.186   7.881  0.00  0.00    -0.246 OA
ATOM     41  OE1 GLU A   5      -8.490   4.002   5.764  0.00  0.00    -0.246 OA
ENDBRANCH  38  39
ENDBRANCH  37  38
ENDBRANCH   5  37
ENDBRANCH   2   5
BRANCH   1  42
ATOM     42  CA  ASN A   4      -5.355  -0.525  11.426  0.00  0.00    +0.158 C 
BRANCH  42  44
ATOM     43  C   SER A   3      -3.238  -1.717  11.204  0.00  0.00    +0.243 C 
ATOM     44  N   ASN A   4      -3.977  -0.772  11.817  0.00  0.00    -0.297 N 
ATOM     45  H   ASN A   4      -3.554  -0.210  12.583  0.00  0.00    +0.150 HD
ATOM     46  O   SER A   3      -3.635  -2.356  10.219  0.00  0.00    -0.273 OA
BRANCH  43  47
ATOM     47  CA  SER A   3      -1.891  -2.027  11.841  0.00  0.00    +0.178 C 
BRANCH  47  50
ATOM     48  C   THR A   2      -2.177  -4.452  11.823  0.00  0.00    +0.243 C 
ATOM     49  O   THR A   2      -3.288  -4.345  12.353  0.00  0.00    -0.273 OA
ATOM     50  N   SER A   3      -1.432  -3.398  11.505  0.00  0.00    -0.295 N 
ATOM     51  H   SER A   3      -0.523  -3.535  11.018  0.00  0.00    +0.150 HD
BRANCH  48  52
ATOM     52  CA  THR A   2      -1.603  -5.843  11.550  0.00  0.00    +0.176 C 
BRANCH  52  54
ATOM     53  C   ASP A   1       0.033  -5.964   9.747  0.00  0.00    +0.239 C 
ATOM     54  N   THR A   2      -0.237  -5.811  11.034  0.00  0.00    -0.295 N 
ATOM     55  H   THR A   2       0.549  -5.663  11.699  0.00  0.00    +0.150 HD
ATOM     56  O   ASP A   1      -0.859  -6.177   8.913  0.00  0.00    -0.274 OA
BRANCH  53  57
ATOM     57  CA  ASP A   1       1.510  -5.847   9.345  0.00  0.00    +0.156 C 
BRANCH  57  58
ATOM     58  N   ASP A   1       1.796  -6.944   8.393  0.00  0.00    -0.238 NA
ATOM     59  H   ASP A   1       1.363  -6.900   7.448  0.00  0.00    +0.142 HD
ENDBRANCH  57  58
BRANCH  57  60
ATOM     60  CB  ASP A   1       1.720  -4.532   8.592  0.00  0.00    +0.140 C 
BRANCH  60  61
ATOM     61  CG  ASP A   1       1.366  -3.328   9.418  0.00  0.00    +0.367 C 
ATOM     62  OD2 ASP A   1       1.431  -3.427  10.674  0.00  0.00    -0.246 OA
ATOM     63  OD1 ASP A   1       1.030  -2.290   8.796  0.00  0.00    -0.246 OA
ENDBRANCH  60  61
ENDBRANCH  57  60
ENDBRANCH  53  57
ENDBRANCH  52  54
BRANCH  52  64
ATOM     64  CB  THR A   2      -1.607  -6.576  12.915  0.00  0.00    +0.137 C 
ATOM     65  CG2 THR A   2      -1.129  -8.021  12.747  0.00  0.00    +0.034 C 
BRANCH  64  66
ATOM     66  OG1 THR A   2      -0.768  -5.840  13.828  0.00  0.00    -0.382 OA
ATOM     67  HG1 THR A   2      -0.759  -6.296  14.707  0.00  0.00    +0.210 HD
ENDBRANCH  64  66
ENDBRANCH  52  64
ENDBRANCH  48  52
ENDBRANCH  47  50
BRANCH  47  68
ATOM     68  CB  SER A   3      -0.827  -0.998  11.515  0.00  0.00    +0.166 C 
BRANCH  68  69
ATOM     69  OG  SER A   3      -0.763  -0.776  10.124  0.00  0.00    -0.380 OA
ATOM     70  H   SER A   3      -0.541  -1.625   9.665  0.00  0.00    +0.211 HD
ENDBRANCH  68  69
ENDBRANCH  47  68
ENDBRANCH  43  47
ENDBRANCH  42  44
BRANCH  42  71
ATOM     71  CB  ASN A   4      -6.201  -0.077  12.638  0.00  0.00    +0.114 C 
BRANCH  71  72
ATOM     72  CG  ASN A   4      -5.859   1.294  13.131  0.00  0.00    +0.222 C 
ATOM     73  ND2 ASN A   4      -6.090   1.480  14.455  0.00  0.00    -0.329 N 
ATOM     74 HD21 ASN A   4      -6.547   0.731  15.013  0.00  0.00    +0.145 HD
ATOM     75 HD22 ASN A   4      -5.810   2.372  14.911  0.00  0.00    +0.145 HD
ATOM     76  OD1 ASN A   4      -5.322   2.142  12.416  0.00  0.00    -0.275 OA
ENDBRANCH  71  72
ENDBRANCH  42  71
ENDBRANCH   1  42
TORSDOF 35
REMARK  Name = ../refined-set-2016/3jzj/3jzj_pocket.pdb
REMARK  249 active torsions:
REMARK  status: ('A' for Active; 'I' for Inactive)
REMARK    1  A    between atoms: _1  and  _3
REMARK    2  A    between atoms: _3  and  _4
REMARK    3  A    between atoms: _3  and  _6
REMARK    4  A    between atoms: _6  and  _7
REMARK    5  A    between atoms: _10  and  _12
REMARK    6  A    between atoms: _12  and  _13
REMARK    7  A    between atoms: _12  and  _15
REMARK    8  A    between atoms: _15  and  _16
REMARK    9  A    between atoms: _19  and  _21
REMARK   10  A    between atoms: _21  and  _22
REMARK   11  A    between atoms: _21  and  _24
REMARK   12  A    between atoms: _24  and  _25
REMARK   13  A    between atoms: _27  and  _29
REMARK   14  A    between atoms: _29  and  _30
REMARK   15  A    between atoms: _29  and  _32
REMARK   16  A    between atoms: _32  and  _33
REMARK   17  A    between atoms: _38  and  _40
REMARK   18  A    between atoms: _40  and  _41
REMARK   19  A    between atoms: _40  and  _43
REMARK   20  A    between atoms: _43  and  _44
REMARK   21  A    between atoms: _44  and  _45
REMARK   22  A    between atoms: _48  and  _50
REMARK   23  A    between atoms: _50  and  _51
REMARK   24  A    between atoms: _54  and  _56
REMARK   25  A    between atoms: _56  and  _57
REMARK   26  A    between atoms: _56  and  _59
REMARK   27  A    between atoms: _59  and  _60
REMARK   28  A    between atoms: _60  and  _61
REMARK   29  A    between atoms: _64  and  _66
REMARK   30  A    between atoms: _66  and  _67
REMARK   31  A    between atoms: _66  and  _69
REMARK   32  A    between atoms: _69  and  _70
REMARK   33  A    between atoms: _70  and  _71
REMARK   34  A    between atoms: _71  and  _72
REMARK   35  A    between atoms: _72  and  _73
REMARK   36  A    between atoms: _77  and  _79
REMARK   37  A    between atoms: _79  and  _80
REMARK   38  A    between atoms: _79  and  _82
REMARK   39  A    between atoms: _82  and  _83
REMARK   40  A    between atoms: _88  and  _89
REMARK   41  A    between atoms: _91  and  _93
REMARK   42  A    between atoms: _93  and  _94
REMARK   43  A    between atoms: _93  and  _96
REMARK   44  A    between atoms: _96  and  _97
REMARK   45  A    between atoms: _102  and  _104
REMARK   46  A    between atoms: _104  and  _105
REMARK   47  A    between atoms: _104  and  _107
REMARK   48  A    between atoms: _111  and  _112
REMARK   49  A    between atoms: _117  and  _119
REMARK   50  A    between atoms: _119  and  _120
REMARK   51  A    between atoms: _119  and  _122
REMARK   52  A    between atoms: _122  and  _123
REMARK   53  A    between atoms: _129  and  _131
REMARK   54  A    between atoms: _131  and  _132
REMARK   55  A    between atoms: _134  and  _136
REMARK   56  A    between atoms: _136  and  _137
REMARK   57  A    between atoms: _136  and  _139
REMARK   58  A    between atoms: _139  and  _140
REMARK   59  A    between atoms: _140  and  _141
REMARK   60  A    between atoms: _144  and  _146
REMARK   61  A    between atoms: _146  and  _147
REMARK   62  A    between atoms: _150  and  _152
REMARK   63  A    between atoms: _152  and  _153
REMARK   64  A    between atoms: _152  and  _155
REMARK   65  A    between atoms: _155  and  _156
REMARK   66  A    between atoms: _161  and  _163
REMARK   67  A    between atoms: _163  and  _164
REMARK   68  A    between atoms: _167  and  _169
REMARK   69  A    between atoms: _169  and  _170
REMARK   70  A    between atoms: _169  and  _172
REMARK   71  A    between atoms: _172  and  _173
REMARK   72  A    between atoms: _173  and  _174
REMARK   73  A    between atoms: _174  and  _175
REMARK   74  A    between atoms: _175  and  _176
REMARK   75  A    between atoms: _180  and  _182
REMARK   76  A    between atoms: _182  and  _183
REMARK   77  A    between atoms: _182  and  _185
REMARK   78  A    between atoms: _185  and  _186
REMARK   79  A    between atoms: _186  and  _187
REMARK   80  A    between atoms: _187  and  _188
REMARK   81  A    between atoms: _188  and  _189
REMARK   82  A    between atoms: _193  and  _195
REMARK   83  A    between atoms: _195  and  _196
REMARK   84  A    between atoms: _195  and  _198
REMARK   85  A    between atoms: _198  and  _199
REMARK   86  A    between atoms: _199  and  _200
REMARK   87  A    between atoms: _200  and  _201
REMARK   88  A    between atoms: _210  and  _212
REMARK   89  A    between atoms: _212  and  _213
REMARK   90  A    between atoms: _212  and  _215
REMARK   91  A    between atoms: _215  and  _216
REMARK   92  A    between atoms: _216  and  _217
REMARK   93  A    between atoms: _220  and  _222
REMARK   94  A    between atoms: _222  and  _223
REMARK   95  A    between atoms: _222  and  _225
REMARK   96  A    between atoms: _228  and  _230
REMARK   97  A    between atoms: _230  and  _231
REMARK   98  A    between atoms: _234  and  _236
REMARK   99  A    between atoms: _236  and  _237
REMARK  100  A    between atoms: _236  and  _239
REMARK  101  A    between atoms: _239  and  _240
REMARK  102  A    between atoms: _250  and  _252
REMARK  103  A    between atoms: _252  and  _253
REMARK  104  A    between atoms: _252  and  _255
REMARK  105  A    between atoms: _258  and  _260
REMARK  106  A    between atoms: _260  and  _261
REMARK  107  A    between atoms: _260  and  _263
REMARK  108  A    between atoms: _263  and  _264
REMARK  109  A    between atoms: _267  and  _269
REMARK  110  A    between atoms: _269  and  _270
REMARK  111  A    between atoms: _269  and  _272
REMARK  112  A    between atoms: _272  and  _273
REMARK  113  A    between atoms: _279  and  _281
REMARK  114  A    between atoms: _281  and  _282
REMARK  115  A    between atoms: _281  and  _284
REMARK  116  A    between atoms: _284  and  _285
REMARK  117  A    between atoms: _285  and  _286
REMARK  118  A    between atoms: _291  and  _293
REMARK  119  A    between atoms: _293  and  _294
REMARK  120  A    between atoms: _293  and  _296
REMARK  121  A    between atoms: _299  and  _301
REMARK  122  A    between atoms: _301  and  _302
REMARK  123  A    between atoms: _301  and  _304
REMARK  124  A    between atoms: _304  and  _305
REMARK  125  A    between atoms: _308  and  _310
REMARK  126  A    between atoms: _310  and  _311
REMARK  127  A    between atoms: _310  and  _313
REMARK  128  A    between atoms: _313  and  _314
REMARK  129  A    between atoms: _317  and  _319
REMARK  130  A    between atoms: _319  and  _320
REMARK  131  A    between atoms: _319  and  _322
REMARK  132  A    between atoms: _322  and  _323
REMARK  133  A    between atoms: _326  and  _328
REMARK  134  A    between atoms: _328  and  _329
REMARK  135  A    between atoms: _328  and  _331
REMARK  136  A    between atoms: _331  and  _332
REMARK  137  A    between atoms: _335  and  _337
REMARK  138  A    between atoms: _337  and  _338
REMARK  139  A    between atoms: _337  and  _340
REMARK  140  A    between atoms: _340  and  _341
REMARK  141  A    between atoms: _341  and  _342
REMARK  142  A    between atoms: _342  and  _343
REMARK  143  A    between atoms: _352  and  _354
REMARK  144  A    between atoms: _354  and  _355
REMARK  145  A    between atoms: _354  and  _357
REMARK  146  A    between atoms: _357  and  _358
REMARK  147  A    between atoms: _361  and  _363
REMARK  148  A    between atoms: _363  and  _364
REMARK  149  A    between atoms: _363  and  _366
REMARK  150  A    between atoms: _366  and  _367
REMARK  151  A    between atoms: _371  and  _372
REMARK  152  A    between atoms: _377  and  _379
REMARK  153  A    between atoms: _379  and  _380
REMARK  154  A    between atoms: _379  and  _382
REMARK  155  A    between atoms: _382  and  _383
REMARK  156  A    between atoms: _388  and  _389
REMARK  157  A    between atoms: _391  and  _393
REMARK  158  A    between atoms: _393  and  _394
REMARK  159  A    between atoms: _393  and  _396
REMARK  160  A    between atoms: _396  and  _397
REMARK  161  A    between atoms: _407  and  _409
REMARK  162  A    between atoms: _409  and  _410
REMARK  163  A    between atoms: _409  and  _412
REMARK  164  A    between atoms: _412  and  _413
REMARK  165  A    between atoms: _419  and  _421
REMARK  166  A    between atoms: _421  and  _422
REMARK  167  A    between atoms: _421  and  _424
REMARK  168  A    between atoms: _424  and  _425
REMARK  169  A    between atoms: _428  and  _430
REMARK  170  A    between atoms: _430  and  _431
REMARK  171  A    between atoms: _430  and  _433
REMARK  172  A    between atoms: _433  and  _434
REMARK  173  A    between atoms: _444  and  _446
REMARK  174  A    between atoms: _446  and  _447
REMARK  175  A    between atoms: _446  and  _449
REMARK  176  A    between atoms: _449  and  _450
REMARK  177  A    between atoms: _450  and  _451
REMARK  178  A    between atoms: _453  and  _455
REMARK  179  A    between atoms: _455  and  _456
REMARK  180  A    between atoms: _455  and  _458
REMARK  181  A    between atoms: _458  and  _459
REMARK  182  A    between atoms: _464  and  _466
REMARK  183  A    between atoms: _466  and  _467
REMARK  184  A    between atoms: _470  and  _471
REMARK  185  A    between atoms: _476  and  _478
REMARK  186  A    between atoms: _478  and  _479
REMARK  187  A    between atoms: _478  and  _481
REMARK  188  A    between atoms: _481  and  _482
REMARK  189  A    between atoms: _492  and  _494
REMARK  190  A    between atoms: _494  and  _495
REMARK  191  A    between atoms: _499  and  _500
REMARK  192  A    between atoms: _505  and  _507
REMARK  193  A    between atoms: _507  and  _508
REMARK  194  A    between atoms: _507  and  _510
REMARK  195  A    between atoms: _510  and  _511
REMARK  196  A    between atoms: _511  and  _512
REMARK  197  A    between atoms: _517  and  _519
REMARK  198  A    between atoms: _519  and  _520
REMARK  199  A    between atoms: _522  and  _524
REMARK  200  A    between atoms: _524  and  _525
REMARK  201  A    between atoms: _527  and  _529
REMARK  202  A    between atoms: _529  and  _530
REMARK  203  A    between atoms: _529  and  _532
REMARK  204  A    between atoms: _532  and  _533
REMARK  205  A    between atoms: _543  and  _545
REMARK  206  A    between atoms: _545  and  _546
REMARK  207  A    between atoms: _545  and  _548
REMARK  208  A    between atoms: _548  and  _549
REMARK  209  A    between atoms: _552  and  _554
REMARK  210  A    between atoms: _554  and  _555
REMARK  211  A    between atoms: _554  and  _557
REMARK  212  A    between atoms: _557  and  _558
REMARK  213  A    between atoms: _561  and  _563
REMARK  214  A    between atoms: _563  and  _564
REMARK  215  A    between atoms: _563  and  _566
REMARK  216  A    between atoms: _566  and  _567
REMARK  217  A    between atoms: _567  and  _568
REMARK  218  A    between atoms: _568  and  _569
REMARK  219  A    between atoms: _578  and  _580
REMARK  220  A    between atoms: _580  and  _581
REMARK  221  A    between atoms: _580  and  _583
REMARK  222  A    between atoms: _583  and  _584
REMARK  223  A    between atoms: _594  and  _596
REMARK  224  A    between atoms: _596  and  _597
REMARK  225  A    between atoms: _599  and  _601
REMARK  226  A    between atoms: _601  and  _602
REMARK  227  A    between atoms: _601  and  _604
REMARK  228  A    between atoms: _604  and  _605
REMARK  229  A    between atoms: _610  and  _612
REMARK  230  A    between atoms: _612  and  _613
REMARK  231  A    between atoms: _616  and  _618
REMARK  232  A    between atoms: _618  and  _619
REMARK  233  A    between atoms: _618  and  _621
REMARK  234  A    between atoms: _621  and  _622
REMARK  235  A    between atoms: _625  and  _627
REMARK  236  A    between atoms: _627  and  _628
REMARK  237  A    between atoms: _627  and  _630
REMARK  238  A    between atoms: _630  and  _631
REMARK  239  A    between atoms: _637  and  _639
REMARK  240  A    between atoms: _639  and  _640
REMARK  241  A    between atoms: _639  and  _642
REMARK  242  A    between atoms: _642  and  _643
REMARK  243  A    between atoms: _643  and  _644
REMARK  244  A    between atoms: _647  and  _649
REMARK  245  A    between atoms: _649  and  _650
REMARK  246  A    between atoms: _649  and  _652
REMARK  247  A    between atoms: _652  and  _653
REMARK  248  A    between atoms: _653  and  _654
REMARK  249  A    between atoms: _654  and  _655
REMARK                            x       y       z     vdW  Elec       q    Type
REMARK                         _______ _______ _______ _____ _____    ______ ____
ROOT
ATOM      1  CG  TYR A   1       3.202   0.667  10.298  0.00  0.00    -0.020 A 
ATOM      2  CD2 TYR A   1       2.201   0.827  11.271  0.00  0.00    -0.001 A 
ATOM      3  CE2 TYR A   1       2.550   0.948  12.600  0.00  0.00    +0.036 A 
ATOM      4  CZ  TYR A   1       3.885   0.956  12.971  0.00  0.00    +0.134 A 
ATOM      5  CE1 TYR A   1       4.908   0.831  12.039  0.00  0.00    +0.036 A 
ATOM      6  CD1 TYR A   1       4.551   0.698  10.706  0.00  0.00    -0.001 A 
ENDROOT
BRANCH   4   7
ATOM      7  OH  TYR A   1       4.214   1.098  14.300  0.00  0.00    -0.506 OA
ATOM      8  HH  TYR A   1       5.199   1.084  14.398  0.00  0.00    +0.292 HD
ENDBRANCH   4   7
BRANCH   1   9
ATOM      9  CB  TYR A   1       2.838   0.494   8.819  0.00  0.00    +0.051 C 
BRANCH   9  10
ATOM     10  CA  TYR A   1       3.532   1.530   7.939  0.00  0.00    +0.137 C 
BRANCH  10  11
ATOM     11  N   TYR A   1       2.675   2.690   7.757  0.00  0.00    -0.239 NA
ATOM     12  H   TYR A   1       1.681   2.655   8.060  0.00  0.00    +0.142 HD
ENDBRANCH  10  11
BRANCH  10  13
ATOM     13  C   TYR A   1       3.935   0.923   6.587  0.00  0.00    +0.224 C 
ATOM     14  O   TYR A   1       5.045   0.485   6.450  0.00  0.00    -0.287 OA
ENDBRANCH  10  13
ENDBRANCH   9  10
ENDBRANCH   1   9
TORSDOF 5
REMARK  Name = ../refined-set-2016/3jzj/3jzj_pocket.pdb
REMARK  249 active torsions:
REMARK  status: ('A' for Active; 'I' for Inactive)
REMARK    1  A    between atoms: _1  and  _3
REMARK    2  A    between atoms: _3  and  _4
REMARK    3  A    between atoms: _3  and  _6
REMARK    4  A    between atoms: _6  and  _7
REMARK    5  A    between atoms: _10  and  _12
REMARK    6  A    between atoms: _12  and  _13
REMARK    7  A    between atoms: _12  and  _15
REMARK    8  A    between atoms: _15  and  _16
REMARK    9  A    between atoms: _19  and  _21
REMARK   10  A    between atoms: _21  and  _22
REMARK   11  A    between atoms: _21  and  _24
REMARK   12  A    between atoms: _24  and  _25
REMARK   13  A    between atoms: _27  and  _29
REMARK   14  A    between atoms: _29  and  _30
REMARK   15  A    between atoms: _29  and  _32
REMARK   16  A    between atoms: _32  and  _33
REMARK   17  A    between atoms: _38  and  _40
REMARK   18  A    between atoms: _40  and  _41
REMARK   19  A    between atoms: _40  and  _43
REMARK   20  A    between atoms: _43  and  _44
REMARK   21  A    between atoms: _44  and  _45
REMARK   22  A    between atoms: _48  and  _50
REMARK   23  A    between atoms: _50  and  _51
REMARK   24  A    between atoms: _54  and  _56
REMARK   25  A    between atoms: _56  and  _57
REMARK   26  A    between atoms: _56  and  _59
REMARK   27  A    between atoms: _59  and  _60
REMARK   28  A    between atoms: _60  and  _61
REMARK   29  A    between atoms: _64  and  _66
REMARK   30  A    between atoms: _66  and  _67
REMARK   31  A    between atoms: _66  and  _69
REMARK   32  A    between atoms: _69  and  _70
REMARK   33  A    between atoms: _70  and  _71
REMARK   34  A    between atoms: _71  and  _72
REMARK   35  A    between atoms: _72  and  _73
REMARK   36  A    between atoms: _77  and  _79
REMARK   37  A    between atoms: _79  and  _80
REMARK   38  A    between atoms: _79  and  _82
REMARK   39  A    between atoms: _82  and  _83
REMARK   40  A    between atoms: _88  and  _89
REMARK   41  A    between atoms: _91  and  _93
REMARK   42  A    between atoms: _93  and  _94
REMARK   43  A    between atoms: _93  and  _96
REMARK   44  A    between atoms: _96  and  _97
REMARK   45  A    between atoms: _102  and  _104
REMARK   46  A    between atoms: _104  and  _105
REMARK   47  A    between atoms: _104  and  _107
REMARK   48  A    between atoms: _111  and  _112
REMARK   49  A    between atoms: _117  and  _119
REMARK   50  A    between atoms: _119  and  _120
REMARK   51  A    between atoms: _119  and  _122
REMARK   52  A    between atoms: _122  and  _123
REMARK   53  A    between atoms: _129  and  _131
REMARK   54  A    between atoms: _131  and  _132
REMARK   55  A    between atoms: _134  and  _136
REMARK   56  A    between atoms: _136  and  _137
REMARK   57  A    between atoms: _136  and  _139
REMARK   58  A    between atoms: _139  and  _140
REMARK   59  A    between atoms: _140  and  _141
REMARK   60  A    between atoms: _144  and  _146
REMARK   61  A    between atoms: _146  and  _147
REMARK   62  A    between atoms: _150  and  _152
REMARK   63  A    between atoms: _152  and  _153
REMARK   64  A    between atoms: _152  and  _155
REMARK   65  A    between atoms: _155  and  _156
REMARK   66  A    between atoms: _161  and  _163
REMARK   67  A    between atoms: _163  and  _164
REMARK   68  A    between atoms: _167  and  _169
REMARK   69  A    between atoms: _169  and  _170
REMARK   70  A    between atoms: _169  and  _172
REMARK   71  A    between atoms: _172  and  _173
REMARK   72  A    between atoms: _173  and  _174
REMARK   73  A    between atoms: _174  and  _175
REMARK   74  A    between atoms: _175  and  _176
REMARK   75  A    between atoms: _180  and  _182
REMARK   76  A    between atoms: _182  and  _183
REMARK   77  A    between atoms: _182  and  _185
REMARK   78  A    between atoms: _185  and  _186
REMARK   79  A    between atoms: _186  and  _187
REMARK   80  A    between atoms: _187  and  _188
REMARK   81  A    between atoms: _188  and  _189
REMARK   82  A    between atoms: _193  and  _195
REMARK   83  A    between atoms: _195  and  _196
REMARK   84  A    between atoms: _195  and  _198
REMARK   85  A    between atoms: _198  and  _199
REMARK   86  A    between atoms: _199  and  _200
REMARK   87  A    between atoms: _200  and  _201
REMARK   88  A    between atoms: _210  and  _212
REMARK   89  A    between atoms: _212  and  _213
REMARK   90  A    between atoms: _212  and  _215
REMARK   91  A    between atoms: _215  and  _216
REMARK   92  A    between atoms: _216  and  _217
REMARK   93  A    between atoms: _220  and  _222
REMARK   94  A    between atoms: _222  and  _223
REMARK   95  A    between atoms: _222  and  _225
REMARK   96  A    between atoms: _228  and  _230
REMARK   97  A    between atoms: _230  and  _231
REMARK   98  A    between atoms: _234  and  _236
REMARK   99  A    between atoms: _236  and  _237
REMARK  100  A    between atoms: _236  and  _239
REMARK  101  A    between atoms: _239  and  _240
REMARK  102  A    between atoms: _250  and  _252
REMARK  103  A    between atoms: _252  and  _253
REMARK  104  A    between atoms: _252  and  _255
REMARK  105  A    between atoms: _258  and  _260
REMARK  106  A    between atoms: _260  and  _261
REMARK  107  A    between atoms: _260  and  _263
REMARK  108  A    between atoms: _263  and  _264
REMARK  109  A    between atoms: _267  and  _269
REMARK  110  A    between atoms: _269  and  _270
REMARK  111  A    between atoms: _269  and  _272
REMARK  112  A    between atoms: _272  and  _273
REMARK  113  A    between atoms: _279  and  _281
REMARK  114  A    between atoms: _281  and  _282
REMARK  115  A    between atoms: _281  and  _284
REMARK  116  A    between atoms: _284  and  _285
REMARK  117  A    between atoms: _285  and  _286
REMARK  118  A    between atoms: _291  and  _293
REMARK  119  A    between atoms: _293  and  _294
REMARK  120  A    between atoms: _293  and  _296
REMARK  121  A    between atoms: _299  and  _301
REMARK  122  A    between atoms: _301  and  _302
REMARK  123  A    between atoms: _301  and  _304
REMARK  124  A    between atoms: _304  and  _305
REMARK  125  A    between atoms: _308  and  _310
REMARK  126  A    between atoms: _310  and  _311
REMARK  127  A    between atoms: _310  and  _313
REMARK  128  A    between atoms: _313  and  _314
REMARK  129  A    between atoms: _317  and  _319
REMARK  130  A    between atoms: _319  and  _320
REMARK  131  A    between atoms: _319  and  _322
REMARK  132  A    between atoms: _322  and  _323
REMARK  133  A    between atoms: _326  and  _328
REMARK  134  A    between atoms: _328  and  _329
REMARK  135  A    between atoms: _328  and  _331
REMARK  136  A    between atoms: _331  and  _332
REMARK  137  A    between atoms: _335  and  _337
REMARK  138  A    between atoms: _337  and  _338
REMARK  139  A    between atoms: _337  and  _340
REMARK  140  A    between atoms: _340  and  _341
REMARK  141  A    between atoms: _341  and  _342
REMARK  142  A    between atoms: _342  and  _343
REMARK  143  A    between atoms: _352  and  _354
REMARK  144  A    between atoms: _354  and  _355
REMARK  145  A    between atoms: _354  and  _357
REMARK  146  A    between atoms: _357  and  _358
REMARK  147  A    between atoms: _361  and  _363
REMARK  148  A    between atoms: _363  and  _364
REMARK  149  A    between atoms: _363  and  _366
REMARK  150  A    between atoms: _366  and  _367
REMARK  151  A    between atoms: _371  and  _372
REMARK  152  A    between atoms: _377  and  _379
REMARK  153  A    between atoms: _379  and  _380
REMARK  154  A    between atoms: _379  and  _382
REMARK  155  A    between atoms: _382  and  _383
REMARK  156  A    between atoms: _388  and  _389
REMARK  157  A    between atoms: _391  and  _393
REMARK  158  A    between atoms: _393  and  _394
REMARK  159  A    between atoms: _393  and  _396
REMARK  160  A    between atoms: _396  and  _397
REMARK  161  A    between atoms: _407  and  _409
REMARK  162  A    between atoms: _409  and  _410
REMARK  163  A    between atoms: _409  and  _412
REMARK  164  A    between atoms: _412  and  _413
REMARK  165  A    between atoms: _419  and  _421
REMARK  166  A    between atoms: _421  and  _422
REMARK  167  A    between atoms: _421  and  _424
REMARK  168  A    between atoms: _424  and  _425
REMARK  169  A    between atoms: _428  and  _430
REMARK  170  A    between atoms: _430  and  _431
REMARK  171  A    between atoms: _430  and  _433
REMARK  172  A    between atoms: _433  and  _434
REMARK  173  A    between atoms: _444  and  _446
REMARK  174  A    between atoms: _446  and  _447
REMARK  175  A    between atoms: _446  and  _449
REMARK  176  A    between atoms: _449  and  _450
REMARK  177  A    between atoms: _450  and  _451
REMARK  178  A    between atoms: _453  and  _455
REMARK  179  A    between atoms: _455  and  _456
REMARK  180  A    between atoms: _455  and  _458
REMARK  181  A    between atoms: _458  and  _459
REMARK  182  A    between atoms: _464  and  _466
REMARK  183  A    between atoms: _466  and  _467
REMARK  184  A    between atoms: _470  and  _471
REMARK  185  A    between atoms: _476  and  _478
REMARK  186  A    between atoms: _478  and  _479
REMARK  187  A    between atoms: _478  and  _481
REMARK  188  A    between atoms: _481  and  _482
REMARK  189  A    between atoms: _492  and  _494
REMARK  190  A    between atoms: _494  and  _495
REMARK  191  A    between atoms: _499  and  _500
REMARK  192  A    between atoms: _505  and  _507
REMARK  193  A    between atoms: _507  and  _508
REMARK  194  A    between atoms: _507  and  _510
REMARK  195  A    between atoms: _510  and  _511
REMARK  196  A    between atoms: _511  and  _512
REMARK  197  A    between atoms: _517  and  _519
REMARK  198  A    between atoms: _519  and  _520
REMARK  199  A    between atoms: _522  and  _524
REMARK  200  A    between atoms: _524  and  _525
REMARK  201  A    between atoms: _527  and  _529
REMARK  202  A    between atoms: _529  and  _530
REMARK  203  A    between atoms: _529  and  _532
REMARK  204  A    between atoms: _532  and  _533
REMARK  205  A    between atoms: _543  and  _545
REMARK  206  A    between atoms: _545  and  _546
REMARK  207  A    between atoms: _545  and  _548
REMARK  208  A    between atoms: _548  and  _549
REMARK  209  A    between atoms: _552  and  _554
REMARK  210  A    between atoms: _554  and  _555
REMARK  211  A    between atoms: _554  and  _557
REMARK  212  A    between atoms: _557  and  _558
REMARK  213  A    between atoms: _561  and  _563
REMARK  214  A    between atoms: _563  and  _564
REMARK  215  A    between atoms: _563  and  _566
REMARK  216  A    between atoms: _566  and  _567
REMARK  217  A    between atoms: _567  and  _568
REMARK  218  A    between atoms: _568  and  _569
REMARK  219  A    between atoms: _578  and  _580
REMARK  220  A    between atoms: _580  and  _581
REMARK  221  A    between atoms: _580  and  _583
REMARK  222  A    between atoms: _583  and  _584
REMARK  223  A    between atoms: _594  and  _596
REMARK  224  A    between atoms: _596  and  _597
REMARK  225  A    between atoms: _599  and  _601
REMARK  226  A    between atoms: _601  and  _602
REMARK  227  A    between atoms: _601  and  _604
REMARK  228  A    between atoms: _604  and  _605
REMARK  229  A    between atoms: _610  and  _612
REMARK  230  A    between atoms: _612  and  _613
REMARK  231  A    between atoms: _616  and  _618
REMARK  232  A    between atoms: _618  and  _619
REMARK  233  A    between atoms: _618  and  _621
REMARK  234  A    between atoms: _621  and  _622
REMARK  235  A    between atoms: _625  and  _627
REMARK  236  A    between atoms: _627  and  _628
REMARK  237  A    between atoms: _627  and  _630
REMARK  238  A    between atoms: _630  and  _631
REMARK  239  A    between atoms: _637  and  _639
REMARK  240  A    between atoms: _639  and  _640
REMARK  241  A    between atoms: _639  and  _642
REMARK  242  A    between atoms: _642  and  _643
REMARK  243  A    between atoms: _643  and  _644
REMARK  244  A    between atoms: _647  and  _649
REMARK  245  A    between atoms: _649  and  _650
REMARK  246  A    between atoms: _649  and  _652
REMARK  247  A    between atoms: _652  and  _653
REMARK  248  A    between atoms: _653  and  _654
REMARK  249  A    between atoms: _654  and  _655
REMARK                            x       y       z     vdW  Elec       q    Type
REMARK                         _______ _______ _______ _____ _____    ______ ____
ROOT
ATOM      1  C   GLY A   5      -8.094 -11.916  13.863  0.00  0.00    +0.243 C 
ATOM      2  O   GLY A   5      -8.453 -13.001  14.337  0.00  0.00    -0.273 OA
ATOM      3  N   GLU A   6      -7.493 -11.799  12.691  0.00  0.00    -0.297 N 
ATOM      4  H   GLU A   6      -7.220 -10.853  12.357  0.00  0.00    +0.150 HD
ENDROOT
BRANCH   3   5
ATOM      5  CA  GLU A   6      -7.201 -12.956  11.851  0.00  0.00    +0.149 C 
BRANCH   5   6
ATOM      6  C   GLU A   6      -5.740 -13.343  11.896  0.00  0.00    +0.241 C 
ATOM      7  N   ALA A   7      -4.871 -12.426  12.359  0.00  0.00    -0.297 N 
ATOM      8  H   ALA A   7      -5.224 -11.613  12.903  0.00  0.00    +0.150 HD
ATOM      9  O   GLU A   6      -5.366 -14.481  11.463  0.00  0.00    -0.273 OA
BRANCH   7  10
ATOM     10  CA  ALA A   7      -3.437 -12.557  12.107  0.00  0.00    +0.149 C 
ATOM     11  CB  ALA A   7      -2.711 -11.171  12.284  0.00  0.00    +0.031 C 
BRANCH  10  12
ATOM     12  C   ALA A   7      -2.730 -13.667  12.876  0.00  0.00    +0.241 C 
ATOM     13  N   ASN A   8      -3.133 -13.874  14.132  0.00  0.00    -0.297 N 
ATOM     14  H   ASN A   8      -3.866 -13.266  14.550  0.00  0.00    +0.150 HD
ATOM     15  O   ALA A   7      -1.821 -14.304  12.339  0.00  0.00    -0.273 OA
BRANCH  13  16
ATOM     16  CA  ASN A   8      -2.543 -14.956  14.919  0.00  0.00    +0.158 C 
BRANCH  16  17
ATOM     17  C   ASN A   8      -2.787 -16.317  14.238  0.00  0.00    +0.241 C 
ATOM     18  O   ASN A   8      -1.849 -17.086  13.979  0.00  0.00    -0.273 OA
ATOM     19  N   ALA A   9      -4.052 -16.592  13.924  0.00  0.00    -0.297 N 
ATOM     20  H   ALA A   9      -4.802 -15.922  14.190  0.00  0.00    +0.150 HD
BRANCH  19  21
ATOM     21  CA  ALA A   9      -4.410 -17.836  13.203  0.00  0.00    +0.149 C 
ATOM     22  CB  ALA A   9      -5.910 -17.941  13.121  0.00  0.00    +0.031 C 
BRANCH  21  23
ATOM     23  C   ALA A   9      -3.803 -17.920  11.823  0.00  0.00    +0.241 C 
ATOM     24  O   ALA A   9      -3.358 -18.990  11.400  0.00  0.00    -0.273 OA
ATOM     25  N   LYS A  10      -3.724 -16.807  11.101  0.00  0.00    -0.298 N 
ATOM     26  H   LYS A  10      -4.065 -15.907  11.496  0.00  0.00    +0.150 HD
BRANCH  25  27
ATOM     27  CA  LYS A  10      -3.162 -16.844   9.760  0.00  0.00    +0.137 C 
BRANCH  27  28
ATOM     28  C   LYS A  10      -1.662 -17.203   9.786  0.00  0.00    +0.227 C 
ATOM     29  O   LYS A  10      -1.172 -18.029   8.986  0.00  0.00    -0.286 OA
ENDBRANCH  27  28
BRANCH  27  30
ATOM     30  CB  LYS A  10      -3.414 -15.507   9.024  0.00  0.00    +0.028 C 
BRANCH  30  31
ATOM     31  CG  LYS A  10      -3.120 -15.671   7.508  0.00  0.00    -0.000 C 
BRANCH  31  32
ATOM     32  CD  LYS A  10      -3.140 -14.292   6.794  0.00  0.00    -0.024 C 
BRANCH  32  33
ATOM     33  CE  LYS A  10      -2.902 -14.427   5.289  0.00  0.00    -0.086 C 
BRANCH  33  34
ATOM     34  NZ  LYS A  10      -4.012 -15.106   4.549  0.00  0.00    +0.380 N 
ATOM     35  HZ1 LYS A  10      -4.141 -16.067   4.925  0.00  0.00    -0.089 HD
ATOM     36  HZ2 LYS A  10      -4.891 -14.564   4.671  0.00  0.00    -0.089 HD
ATOM     37  HZ3 LYS A  10      -3.773 -15.157   3.538  0.00  0.00    -0.089 HD
ENDBRANCH  33  34
ENDBRANCH  32  33
ENDBRANCH  31  32
ENDBRANCH  30  31
ENDBRANCH  27  30
ENDBRANCH  25  27
ENDBRANCH  21  23
ENDBRANCH  19  21
ENDBRANCH  16  17
BRANCH  16  38
ATOM     38  CB  ASN A   8      -3.074 -14.957  16.358  0.00  0.00    +0.114 C 
BRANCH  38  39
ATOM     39  CG  ASN A   8      -2.339 -15.961  17.236  0.00  0.00    +0.222 C 
ATOM     40  ND2 ASN A   8      -1.545 -15.474  18.187  0.00  0.00    -0.329 N 
ATOM     41 HD21 ASN A   8      -1.034 -16.122  18.820  0.00  0.00    +0.145 HD
ATOM     42 HD22 ASN A   8      -1.435 -14.446  18.297  0.00  0.00    +0.145 HD
ATOM     43  OD1 ASN A   8      -2.498 -17.178  17.071  0.00  0.00    -0.275 OA
ENDBRANCH  38  39
ENDBRANCH  16  38
ENDBRANCH  13  16
ENDBRANCH  10  12
ENDBRANCH   7  10
ENDBRANCH   5   6
BRANCH   5  44
ATOM     44  CB  GLU A   6      -7.564 -12.629  10.386  0.00  0.00    +0.041 C 
BRANCH  44  45
ATOM     45  CG  GLU A   6      -9.039 -12.329  10.206  0.00  0.00    +0.116 C 
BRANCH  45  46
ATOM     46  CD  GLU A   6      -9.417 -11.717   8.839  0.00  0.00    +0.365 C 
ATOM     47  OE2 GLU A   6     -10.543 -11.126   8.779  0.00  0.00    -0.246 OA
ATOM     48  OE1 GLU A   6      -8.635 -11.814   7.908  0.00  0.00    -0.246 OA
ENDBRANCH  45  46
ENDBRANCH  44  45
ENDBRANCH   5  44
ENDBRANCH   3   5
BRANCH   1  49
ATOM     49  CA  GLY A   5      -8.362 -10.649  14.659  0.00  0.00    +0.176 C 
BRANCH  49  52
ATOM     50  C   PHE A   4      -6.280  -9.342  14.304  0.00  0.00    +0.241 C 
ATOM     51  O   PHE A   4      -5.581 -10.210  14.795  0.00  0.00    -0.273 OA
ATOM     52  N   GLY A   5      -7.598  -9.450  14.172  0.00  0.00    -0.295 N 
ATOM     53  H   GLY A   5      -8.120  -8.676  13.715  0.00  0.00    +0.150 HD
BRANCH  50  54
ATOM     54  CA  PHE A   4      -5.635  -8.034  13.842  0.00  0.00    +0.153 C 
BRANCH  54  56
ATOM     55  C   PRO A   3      -6.091  -8.434  11.472  0.00  0.00    +0.241 C 
ATOM     56  N   PHE A   4      -6.091  -7.625  12.506  0.00  0.00    -0.297 N 
ATOM     57  H   PHE A   4      -6.429  -6.650  12.374  0.00  0.00    +0.150 HD
ATOM     58  O   PRO A   3      -5.830  -9.652  11.578  0.00  0.00    -0.273 OA
BRANCH  55  62
ATOM     59  C   VAL A   2      -4.354  -8.213   9.085  0.00  0.00    +0.244 C 
ATOM     60  O   VAL A   2      -3.780  -7.780  10.075  0.00  0.00    -0.273 OA
ATOM     61  N   PRO A   3      -5.710  -8.277   9.012  0.00  0.00    -0.272 N 
ATOM     62  CA  PRO A   3      -6.514  -7.836  10.140  0.00  0.00    +0.152 C 
ATOM     63  CB  PRO A   3      -7.919  -8.332   9.768  0.00  0.00    +0.031 C 
ATOM     64  CG  PRO A   3      -7.895  -8.312   8.265  0.00  0.00    +0.024 C 
ATOM     65  CD  PRO A   3      -6.528  -8.733   7.864  0.00  0.00    +0.094 C 
BRANCH  59  66
ATOM     66  CA  VAL A   2      -3.537  -8.704   7.902  0.00  0.00    +0.149 C 
BRANCH  66  68
ATOM     67  C   ASN A   1      -2.840  -7.077   6.178  0.00  0.00    +0.239 C 
ATOM     68  N   VAL A   2      -2.766  -7.531   7.427  0.00  0.00    -0.297 N 
ATOM     69  H   VAL A   2      -2.140  -7.042   8.098  0.00  0.00    +0.150 HD
ATOM     70  O   ASN A   1      -3.579  -7.552   5.329  0.00  0.00    -0.274 OA
BRANCH  67  71
ATOM     71  CA  ASN A   1      -1.906  -5.928   5.807  0.00  0.00    +0.154 C 
BRANCH  71  72
ATOM     72  N   ASN A   1      -1.206  -6.265   4.595  0.00  0.00    -0.238 NA
ATOM     73  H   ASN A   1      -1.654  -6.110   3.669  0.00  0.00    +0.142 HD
ENDBRANCH  71  72
BRANCH  71  74
ATOM     74  CB  ASN A   1      -2.729  -4.677   5.632  0.00  0.00    +0.111 C 
BRANCH  74  75
ATOM     75  CG  ASN A   1      -3.355  -4.259   6.905  0.00  0.00    +0.221 C 
ATOM     76  ND2 ASN A   1      -2.620  -3.452   7.660  0.00  0.00    -0.329 N 
ATOM     77 HD21 ASN A   1      -2.974  -3.142   8.588  0.00  0.00    +0.145 HD
ATOM     78 HD22 ASN A   1      -1.690  -3.129   7.324  0.00  0.00    +0.145 HD
ATOM     79  OD1 ASN A   1      -4.474  -4.684   7.241  0.00  0.00    -0.275 OA
ENDBRANCH  74  75
ENDBRANCH  71  74
ENDBRANCH  67  71
ENDBRANCH  66  68
BRANCH  66  80
ATOM     80  CB  VAL A   2      -2.652  -9.863   8.349  0.00  0.00    +0.027 C 
ATOM     81  CG2 VAL A   2      -3.568 -11.069   8.760  0.00  0.00    +0.002 C 
ATOM     82  CG1 VAL A   2      -1.682 -10.286   7.215  0.00  0.00    +0.002 C 
ENDBRANCH  66  80
ENDBRANCH  59  66
ENDBRANCH  55  62
ENDBRANCH  54  56
BRANCH  54  83
ATOM     83  CB  PHE A   4      -6.019  -6.915  14.861  0.00  0.00    +0.055 C 
BRANCH  83  84
ATOM     84  CG  PHE A   4      -5.721  -7.255  16.305  0.00  0.00    -0.020 A 
ATOM     85  CD2 PHE A   4      -6.702  -7.092  17.270  0.00  0.00    -0.004 A 
ATOM     86  CE2 PHE A   4      -6.429  -7.385  18.606  0.00  0.00    -0.000 A 
ATOM     87  CZ  PHE A   4      -5.161  -7.871  18.962  0.00  0.00    -0.000 A 
ATOM     88  CE1 PHE A   4      -4.188  -8.027  18.001  0.00  0.00    -0.000 A 
ATOM     89  CD1 PHE A   4      -4.473  -7.718  16.695  0.00  0.00    -0.004 A 
ENDBRANCH  83  84
ENDBRANCH  54  83
ENDBRANCH  50  54
ENDBRANCH  49  52
ENDBRANCH   1  49
TORSDOF 34
REMARK  Name = ../refined-set-2016/3jzj/3jzj_pocket.pdb
REMARK  249 active torsions:
REMARK  status: ('A' for Active; 'I' for Inactive)
REMARK    1  A    between atoms: _1  and  _3
REMARK    2  A    between atoms: _3  and  _4
REMARK    3  A    between atoms: _3  and  _6
REMARK    4  A    between atoms: _6  and  _7
REMARK    5  A    between atoms: _10  and  _12
REMARK    6  A    between atoms: _12  and  _13
REMARK    7  A    between atoms: _12  and  _15
REMARK    8  A    between atoms: _15  and  _16
REMARK    9  A    between atoms: _19  and  _21
REMARK   10  A    between atoms: _21  and  _22
REMARK   11  A    between atoms: _21  and  _24
REMARK   12  A    between atoms: _24  and  _25
REMARK   13  A    between atoms: _27  and  _29
REMARK   14  A    between atoms: _29  and  _30
REMARK   15  A    between atoms: _29  and  _32
REMARK   16  A    between atoms: _32  and  _33
REMARK   17  A    between atoms: _38  and  _40
REMARK   18  A    between atoms: _40  and  _41
REMARK   19  A    between atoms: _40  and  _43
REMARK   20  A    between atoms: _43  and  _44
REMARK   21  A    between atoms: _44  and  _45
REMARK   22  A    between atoms: _48  and  _50
REMARK   23  A    between atoms: _50  and  _51
REMARK   24  A    between atoms: _54  and  _56
REMARK   25  A    between atoms: _56  and  _57
REMARK   26  A    between atoms: _56  and  _59
REMARK   27  A    between atoms: _59  and  _60
REMARK   28  A    between atoms: _60  and  _61
REMARK   29  A    between atoms: _64  and  _66
REMARK   30  A    between atoms: _66  and  _67
REMARK   31  A    between atoms: _66  and  _69
REMARK   32  A    between atoms: _69  and  _70
REMARK   33  A    between atoms: _70  and  _71
REMARK   34  A    between atoms: _71  and  _72
REMARK   35  A    between atoms: _72  and  _73
REMARK   36  A    between atoms: _77  and  _79
REMARK   37  A    between atoms: _79  and  _80
REMARK   38  A    between atoms: _79  and  _82
REMARK   39  A    between atoms: _82  and  _83
REMARK   40  A    between atoms: _88  and  _89
REMARK   41  A    between atoms: _91  and  _93
REMARK   42  A    between atoms: _93  and  _94
REMARK   43  A    between atoms: _93  and  _96
REMARK   44  A    between atoms: _96  and  _97
REMARK   45  A    between atoms: _102  and  _104
REMARK   46  A    between atoms: _104  and  _105
REMARK   47  A    between atoms: _104  and  _107
REMARK   48  A    between atoms: _111  and  _112
REMARK   49  A    between atoms: _117  and  _119
REMARK   50  A    between atoms: _119  and  _120
REMARK   51  A    between atoms: _119  and  _122
REMARK   52  A    between atoms: _122  and  _123
REMARK   53  A    between atoms: _129  and  _131
REMARK   54  A    between atoms: _131  and  _132
REMARK   55  A    between atoms: _134  and  _136
REMARK   56  A    between atoms: _136  and  _137
REMARK   57  A    between atoms: _136  and  _139
REMARK   58  A    between atoms: _139  and  _140
REMARK   59  A    between atoms: _140  and  _141
REMARK   60  A    between atoms: _144  and  _146
REMARK   61  A    between atoms: _146  and  _147
REMARK   62  A    between atoms: _150  and  _152
REMARK   63  A    between atoms: _152  and  _153
REMARK   64  A    between atoms: _152  and  _155
REMARK   65  A    between atoms: _155  and  _156
REMARK   66  A    between atoms: _161  and  _163
REMARK   67  A    between atoms: _163  and  _164
REMARK   68  A    between atoms: _167  and  _169
REMARK   69  A    between atoms: _169  and  _170
REMARK   70  A    between atoms: _169  and  _172
REMARK   71  A    between atoms: _172  and  _173
REMARK   72  A    between atoms: _173  and  _174
REMARK   73  A    between atoms: _174  and  _175
REMARK   74  A    between atoms: _175  and  _176
REMARK   75  A    between atoms: _180  and  _182
REMARK   76  A    between atoms: _182  and  _183
REMARK   77  A    between atoms: _182  and  _185
REMARK   78  A    between atoms: _185  and  _186
REMARK   79  A    between atoms: _186  and  _187
REMARK   80  A    between atoms: _187  and  _188
REMARK   81  A    between atoms: _188  and  _189
REMARK   82  A    between atoms: _193  and  _195
REMARK   83  A    between atoms: _195  and  _196
REMARK   84  A    between atoms: _195  and  _198
REMARK   85  A    between atoms: _198  and  _199
REMARK   86  A    between atoms: _199  and  _200
REMARK   87  A    between atoms: _200  and  _201
REMARK   88  A    between atoms: _210  and  _212
REMARK   89  A    between atoms: _212  and  _213
REMARK   90  A    between atoms: _212  and  _215
REMARK   91  A    between atoms: _215  and  _216
REMARK   92  A    between atoms: _216  and  _217
REMARK   93  A    between atoms: _220  and  _222
REMARK   94  A    between atoms: _222  and  _223
REMARK   95  A    between atoms: _222  and  _225
REMARK   96  A    between atoms: _228  and  _230
REMARK   97  A    between atoms: _230  and  _231
REMARK   98  A    between atoms: _234  and  _236
REMARK   99  A    between atoms: _236  and  _237
REMARK  100  A    between atoms: _236  and  _239
REMARK  101  A    between atoms: _239  and  _240
REMARK  102  A    between atoms: _250  and  _252
REMARK  103  A    between atoms: _252  and  _253
REMARK  104  A    between atoms: _252  and  _255
REMARK  105  A    between atoms: _258  and  _260
REMARK  106  A    between atoms: _260  and  _261
REMARK  107  A    between atoms: _260  and  _263
REMARK  108  A    between atoms: _263  and  _264
REMARK  109  A    between atoms: _267  and  _269
REMARK  110  A    between atoms: _269  and  _270
REMARK  111  A    between atoms: _269  and  _272
REMARK  112  A    between atoms: _272  and  _273
REMARK  113  A    between atoms: _279  and  _281
REMARK  114  A    between atoms: _281  and  _282
REMARK  115  A    between atoms: _281  and  _284
REMARK  116  A    between atoms: _284  and  _285
REMARK  117  A    between atoms: _285  and  _286
REMARK  118  A    between atoms: _291  and  _293
REMARK  119  A    between atoms: _293  and  _294
REMARK  120  A    between atoms: _293  and  _296
REMARK  121  A    between atoms: _299  and  _301
REMARK  122  A    between atoms: _301  and  _302
REMARK  123  A    between atoms: _301  and  _304
REMARK  124  A    between atoms: _304  and  _305
REMARK  125  A    between atoms: _308  and  _310
REMARK  126  A    between atoms: _310  and  _311
REMARK  127  A    between atoms: _310  and  _313
REMARK  128  A    between atoms: _313  and  _314
REMARK  129  A    between atoms: _317  and  _319
REMARK  130  A    between atoms: _319  and  _320
REMARK  131  A    between atoms: _319  and  _322
REMARK  132  A    between atoms: _322  and  _323
REMARK  133  A    between atoms: _326  and  _328
REMARK  134  A    between atoms: _328  and  _329
REMARK  135  A    between atoms: _328  and  _331
REMARK  136  A    between atoms: _331  and  _332
REMARK  137  A    between atoms: _335  and  _337
REMARK  138  A    between atoms: _337  and  _338
REMARK  139  A    between atoms: _337  and  _340
REMARK  140  A    between atoms: _340  and  _341
REMARK  141  A    between atoms: _341  and  _342
REMARK  142  A    between atoms: _342  and  _343
REMARK  143  A    between atoms: _352  and  _354
REMARK  144  A    between atoms: _354  and  _355
REMARK  145  A    between atoms: _354  and  _357
REMARK  146  A    between atoms: _357  and  _358
REMARK  147  A    between atoms: _361  and  _363
REMARK  148  A    between atoms: _363  and  _364
REMARK  149  A    between atoms: _363  and  _366
REMARK  150  A    between atoms: _366  and  _367
REMARK  151  A    between atoms: _371  and  _372
REMARK  152  A    between atoms: _377  and  _379
REMARK  153  A    between atoms: _379  and  _380
REMARK  154  A    between atoms: _379  and  _382
REMARK  155  A    between atoms: _382  and  _383
REMARK  156  A    between atoms: _388  and  _389
REMARK  157  A    between atoms: _391  and  _393
REMARK  158  A    between atoms: _393  and  _394
REMARK  159  A    between atoms: _393  and  _396
REMARK  160  A    between atoms: _396  and  _397
REMARK  161  A    between atoms: _407  and  _409
REMARK  162  A    between atoms: _409  and  _410
REMARK  163  A    between atoms: _409  and  _412
REMARK  164  A    between atoms: _412  and  _413
REMARK  165  A    between atoms: _419  and  _421
REMARK  166  A    between atoms: _421  and  _422
REMARK  167  A    between atoms: _421  and  _424
REMARK  168  A    between atoms: _424  and  _425
REMARK  169  A    between atoms: _428  and  _430
REMARK  170  A    between atoms: _430  and  _431
REMARK  171  A    between atoms: _430  and  _433
REMARK  172  A    between atoms: _433  and  _434
REMARK  173  A    between atoms: _444  and  _446
REMARK  174  A    between atoms: _446  and  _447
REMARK  175  A    between atoms: _446  and  _449
REMARK  176  A    between atoms: _449  and  _450
REMARK  177  A    between atoms: _450  and  _451
REMARK  178  A    between atoms: _453  and  _455
REMARK  179  A    between atoms: _455  and  _456
REMARK  180  A    between atoms: _455  and  _458
REMARK  181  A    between atoms: _458  and  _459
REMARK  182  A    between atoms: _464  and  _466
REMARK  183  A    between atoms: _466  and  _467
REMARK  184  A    between atoms: _470  and  _471
REMARK  185  A    between atoms: _476  and  _478
REMARK  186  A    between atoms: _478  and  _479
REMARK  187  A    between atoms: _478  and  _481
REMARK  188  A    between atoms: _481  and  _482
REMARK  189  A    between atoms: _492  and  _494
REMARK  190  A    between atoms: _494  and  _495
REMARK  191  A    between atoms: _499  and  _500
REMARK  192  A    between atoms: _505  and  _507
REMARK  193  A    between atoms: _507  and  _508
REMARK  194  A    between atoms: _507  and  _510
REMARK  195  A    between atoms: _510  and  _511
REMARK  196  A    between atoms: _511  and  _512
REMARK  197  A    between atoms: _517  and  _519
REMARK  198  A    between atoms: _519  and  _520
REMARK  199  A    between atoms: _522  and  _524
REMARK  200  A    between atoms: _524  and  _525
REMARK  201  A    between atoms: _527  and  _529
REMARK  202  A    between atoms: _529  and  _530
REMARK  203  A    between atoms: _529  and  _532
REMARK  204  A    between atoms: _532  and  _533
REMARK  205  A    between atoms: _543  and  _545
REMARK  206  A    between atoms: _545  and  _546
REMARK  207  A    between atoms: _545  and  _548
REMARK  208  A    between atoms: _548  and  _549
REMARK  209  A    between atoms: _552  and  _554
REMARK  210  A    between atoms: _554  and  _555
REMARK  211  A    between atoms: _554  and  _557
REMARK  212  A    between atoms: _557  and  _558
REMARK  213  A    between atoms: _561  and  _563
REMARK  214  A    between atoms: _563  and  _564
REMARK  215  A    between atoms: _563  and  _566
REMARK  216  A    between atoms: _566  and  _567
REMARK  217  A    between atoms: _567  and  _568
REMARK  218  A    between atoms: _568  and  _569
REMARK  219  A    between atoms: _578  and  _580
REMARK  220  A    between atoms: _580  and  _581
REMARK  221  A    between atoms: _580  and  _583
REMARK  222  A    between atoms: _583  and  _584
REMARK  223  A    between atoms: _594  and  _596
REMARK  224  A    between atoms: _596  and  _597
REMARK  225  A    between atoms: _599  and  _601
REMARK  226  A    between atoms: _601  and  _602
REMARK  227  A    between atoms: _601  and  _604
REMARK  228  A    between atoms: _604  and  _605
REMARK  229  A    between atoms: _610  and  _612
REMARK  230  A    between atoms: _612  and  _613
REMARK  231  A    between atoms: _616  and  _618
REMARK  232  A    between atoms: _618  and  _619
REMARK  233  A    between atoms: _618  and  _621
REMARK  234  A    between atoms: _621  and  _622
REMARK  235  A    between atoms: _625  and  _627
REMARK  236  A    between atoms: _627  and  _628
REMARK  237  A    between atoms: _627  and  _630
REMARK  238  A    between atoms: _630  and  _631
REMARK  239  A    between atoms: _637  and  _639
REMARK  240  A    between atoms: _639  and  _640
REMARK  241  A    between atoms: _639  and  _642
REMARK  242  A    between atoms: _642  and  _643
REMARK  243  A    between atoms: _643  and  _644
REMARK  244  A    between atoms: _647  and  _649
REMARK  245  A    between atoms: _649  and  _650
REMARK  246  A    between atoms: _649  and  _652
REMARK  247  A    between atoms: _652  and  _653
REMARK  248  A    between atoms: _653  and  _654
REMARK  249  A    between atoms: _654  and  _655
REMARK                            x       y       z     vdW  Elec       q    Type
REMARK                         _______ _______ _______ _____ _____    ______ ____
ROOT
ATOM      1  CG  LYS A   1      -0.357 -19.962  15.260  0.00  0.00    -0.000 C 
ENDROOT
BRANCH   1   2
ATOM      2  CB  LYS A   1      -0.866 -20.532  13.930  0.00  0.00    +0.025 C 
BRANCH   2   3
ATOM      3  CA  LYS A   1       0.039 -20.209  12.731  0.00  0.00    +0.133 C 
BRANCH   3   4
ATOM      4  N   LYS A   1      -0.110 -18.786  12.305  0.00  0.00    -0.239 NA
ATOM      5  H   LYS A   1      -0.787 -18.154  12.777  0.00  0.00    +0.142 HD
ENDBRANCH   3   4
BRANCH   3   6
ATOM      6  C   LYS A   1      -0.246 -21.192  11.589  0.00  0.00    +0.224 C 
ATOM      7  O   LYS A   1       0.451 -22.213  11.453  0.00  0.00    -0.287 OA
ENDBRANCH   3   6
ENDBRANCH   2   3
ENDBRANCH   1   2
BRANCH   1   8
ATOM      8  CD  LYS A   1      -1.168 -20.377  16.485  0.00  0.00    -0.024 C 
BRANCH   8   9
ATOM      9  CE  LYS A   1      -0.559 -19.765  17.747  0.00  0.00    -0.086 C 
BRANCH   9  10
ATOM     10  NZ  LYS A   1      -1.288 -20.329  18.933  0.00  0.00    +0.380 N 
ATOM     11  HZ1 LYS A   1      -0.891 -19.927  19.806  0.00  0.00    -0.089 HD
ATOM     12  HZ2 LYS A   1      -1.179 -21.363  18.946  0.00  0.00    -0.089 HD
ATOM     13  HZ3 LYS A   1      -2.297 -20.086  18.866  0.00  0.00    -0.089 HD
ENDBRANCH   9  10
ENDBRANCH   8   9
ENDBRANCH   1   8
TORSDOF 7
REMARK  Name = ../refined-set-2016/3jzj/3jzj_pocket.pdb
REMARK  249 active torsions:
REMARK  status: ('A' for Active; 'I' for Inactive)
REMARK    1  A    between atoms: _1  and  _3
REMARK    2  A    between atoms: _3  and  _4
REMARK    3  A    between atoms: _3  and  _6
REMARK    4  A    between atoms: _6  and  _7
REMARK    5  A    between atoms: _10  and  _12
REMARK    6  A    between atoms: _12  and  _13
REMARK    7  A    between atoms: _12  and  _15
REMARK    8  A    between atoms: _15  and  _16
REMARK    9  A    between atoms: _19  and  _21
REMARK   10  A    between atoms: _21  and  _22
REMARK   11  A    between atoms: _21  and  _24
REMARK   12  A    between atoms: _24  and  _25
REMARK   13  A    between atoms: _27  and  _29
REMARK   14  A    between atoms: _29  and  _30
REMARK   15  A    between atoms: _29  and  _32
REMARK   16  A    between atoms: _32  and  _33
REMARK   17  A    between atoms: _38  and  _40
REMARK   18  A    between atoms: _40  and  _41
REMARK   19  A    between atoms: _40  and  _43
REMARK   20  A    between atoms: _43  and  _44
REMARK   21  A    between atoms: _44  and  _45
REMARK   22  A    between atoms: _48  and  _50
REMARK   23  A    between atoms: _50  and  _51
REMARK   24  A    between atoms: _54  and  _56
REMARK   25  A    between atoms: _56  and  _57
REMARK   26  A    between atoms: _56  and  _59
REMARK   27  A    between atoms: _59  and  _60
REMARK   28  A    between atoms: _60  and  _61
REMARK   29  A    between atoms: _64  and  _66
REMARK   30  A    between atoms: _66  and  _67
REMARK   31  A    between atoms: _66  and  _69
REMARK   32  A    between atoms: _69  and  _70
REMARK   33  A    between atoms: _70  and  _71
REMARK   34  A    between atoms: _71  and  _72
REMARK   35  A    between atoms: _72  and  _73
REMARK   36  A    between atoms: _77  and  _79
REMARK   37  A    between atoms: _79  and  _80
REMARK   38  A    between atoms: _79  and  _82
REMARK   39  A    between atoms: _82  and  _83
REMARK   40  A    between atoms: _88  and  _89
REMARK   41  A    between atoms: _91  and  _93
REMARK   42  A    between atoms: _93  and  _94
REMARK   43  A    between atoms: _93  and  _96
REMARK   44  A    between atoms: _96  and  _97
REMARK   45  A    between atoms: _102  and  _104
REMARK   46  A    between atoms: _104  and  _105
REMARK   47  A    between atoms: _104  and  _107
REMARK   48  A    between atoms: _111  and  _112
REMARK   49  A    between atoms: _117  and  _119
REMARK   50  A    between atoms: _119  and  _120
REMARK   51  A    between atoms: _119  and  _122
REMARK   52  A    between atoms: _122  and  _123
REMARK   53  A    between atoms: _129  and  _131
REMARK   54  A    between atoms: _131  and  _132
REMARK   55  A    between atoms: _134  and  _136
REMARK   56  A    between atoms: _136  and  _137
REMARK   57  A    between atoms: _136  and  _139
REMARK   58  A    between atoms: _139  and  _140
REMARK   59  A    between atoms: _140  and  _141
REMARK   60  A    between atoms: _144  and  _146
REMARK   61  A    between atoms: _146  and  _147
REMARK   62  A    between atoms: _150  and  _152
REMARK   63  A    between atoms: _152  and  _153
REMARK   64  A    between atoms: _152  and  _155
REMARK   65  A    between atoms: _155  and  _156
REMARK   66  A    between atoms: _161  and  _163
REMARK   67  A    between atoms: _163  and  _164
REMARK   68  A    between atoms: _167  and  _169
REMARK   69  A    between atoms: _169  and  _170
REMARK   70  A    between atoms: _169  and  _172
REMARK   71  A    between atoms: _172  and  _173
REMARK   72  A    between atoms: _173  and  _174
REMARK   73  A    between atoms: _174  and  _175
REMARK   74  A    between atoms: _175  and  _176
REMARK   75  A    between atoms: _180  and  _182
REMARK   76  A    between atoms: _182  and  _183
REMARK   77  A    between atoms: _182  and  _185
REMARK   78  A    between atoms: _185  and  _186
REMARK   79  A    between atoms: _186  and  _187
REMARK   80  A    between atoms: _187  and  _188
REMARK   81  A    between atoms: _188  and  _189
REMARK   82  A    between atoms: _193  and  _195
REMARK   83  A    between atoms: _195  and  _196
REMARK   84  A    between atoms: _195  and  _198
REMARK   85  A    between atoms: _198  and  _199
REMARK   86  A    between atoms: _199  and  _200
REMARK   87  A    between atoms: _200  and  _201
REMARK   88  A    between atoms: _210  and  _212
REMARK   89  A    between atoms: _212  and  _213
REMARK   90  A    between atoms: _212  and  _215
REMARK   91  A    between atoms: _215  and  _216
REMARK   92  A    between atoms: _216  and  _217
REMARK   93  A    between atoms: _220  and  _222
REMARK   94  A    between atoms: _222  and  _223
REMARK   95  A    between atoms: _222  and  _225
REMARK   96  A    between atoms: _228  and  _230
REMARK   97  A    between atoms: _230  and  _231
REMARK   98  A    between atoms: _234  and  _236
REMARK   99  A    between atoms: _236  and  _237
REMARK  100  A    between atoms: _236  and  _239
REMARK  101  A    between atoms: _239  and  _240
REMARK  102  A    between atoms: _250  and  _252
REMARK  103  A    between atoms: _252  and  _253
REMARK  104  A    between atoms: _252  and  _255
REMARK  105  A    between atoms: _258  and  _260
REMARK  106  A    between atoms: _260  and  _261
REMARK  107  A    between atoms: _260  and  _263
REMARK  108  A    between atoms: _263  and  _264
REMARK  109  A    between atoms: _267  and  _269
REMARK  110  A    between atoms: _269  and  _270
REMARK  111  A    between atoms: _269  and  _272
REMARK  112  A    between atoms: _272  and  _273
REMARK  113  A    between atoms: _279  and  _281
REMARK  114  A    between atoms: _281  and  _282
REMARK  115  A    between atoms: _281  and  _284
REMARK  116  A    between atoms: _284  and  _285
REMARK  117  A    between atoms: _285  and  _286
REMARK  118  A    between atoms: _291  and  _293
REMARK  119  A    between atoms: _293  and  _294
REMARK  120  A    between atoms: _293  and  _296
REMARK  121  A    between atoms: _299  and  _301
REMARK  122  A    between atoms: _301  and  _302
REMARK  123  A    between atoms: _301  and  _304
REMARK  124  A    between atoms: _304  and  _305
REMARK  125  A    between atoms: _308  and  _310
REMARK  126  A    between atoms: _310  and  _311
REMARK  127  A    between atoms: _310  and  _313
REMARK  128  A    between atoms: _313  and  _314
REMARK  129  A    between atoms: _317  and  _319
REMARK  130  A    between atoms: _319  and  _320
REMARK  131  A    between atoms: _319  and  _322
REMARK  132  A    between atoms: _322  and  _323
REMARK  133  A    between atoms: _326  and  _328
REMARK  134  A    between atoms: _328  and  _329
REMARK  135  A    between atoms: _328  and  _331
REMARK  136  A    between atoms: _331  and  _332
REMARK  137  A    between atoms: _335  and  _337
REMARK  138  A    between atoms: _337  and  _338
REMARK  139  A    between atoms: _337  and  _340
REMARK  140  A    between atoms: _340  and  _341
REMARK  141  A    between atoms: _341  and  _342
REMARK  142  A    between atoms: _342  and  _343
REMARK  143  A    between atoms: _352  and  _354
REMARK  144  A    between atoms: _354  and  _355
REMARK  145  A    between atoms: _354  and  _357
REMARK  146  A    between atoms: _357  and  _358
REMARK  147  A    between atoms: _361  and  _363
REMARK  148  A    between atoms: _363  and  _364
REMARK  149  A    between atoms: _363  and  _366
REMARK  150  A    between atoms: _366  and  _367
REMARK  151  A    between atoms: _371  and  _372
REMARK  152  A    between atoms: _377  and  _379
REMARK  153  A    between atoms: _379  and  _380
REMARK  154  A    between atoms: _379  and  _382
REMARK  155  A    between atoms: _382  and  _383
REMARK  156  A    between atoms: _388  and  _389
REMARK  157  A    between atoms: _391  and  _393
REMARK  158  A    between atoms: _393  and  _394
REMARK  159  A    between atoms: _393  and  _396
REMARK  160  A    between atoms: _396  and  _397
REMARK  161  A    between atoms: _407  and  _409
REMARK  162  A    between atoms: _409  and  _410
REMARK  163  A    between atoms: _409  and  _412
REMARK  164  A    between atoms: _412  and  _413
REMARK  165  A    between atoms: _419  and  _421
REMARK  166  A    between atoms: _421  and  _422
REMARK  167  A    between atoms: _421  and  _424
REMARK  168  A    between atoms: _424  and  _425
REMARK  169  A    between atoms: _428  and  _430
REMARK  170  A    between atoms: _430  and  _431
REMARK  171  A    between atoms: _430  and  _433
REMARK  172  A    between atoms: _433  and  _434
REMARK  173  A    between atoms: _444  and  _446
REMARK  174  A    between atoms: _446  and  _447
REMARK  175  A    between atoms: _446  and  _449
REMARK  176  A    between atoms: _449  and  _450
REMARK  177  A    between atoms: _450  and  _451
REMARK  178  A    between atoms: _453  and  _455
REMARK  179  A    between atoms: _455  and  _456
REMARK  180  A    between atoms: _455  and  _458
REMARK  181  A    between atoms: _458  and  _459
REMARK  182  A    between atoms: _464  and  _466
REMARK  183  A    between atoms: _466  and  _467
REMARK  184  A    between atoms: _470  and  _471
REMARK  185  A    between atoms: _476  and  _478
REMARK  186  A    between atoms: _478  and  _479
REMARK  187  A    between atoms: _478  and  _481
REMARK  188  A    between atoms: _481  and  _482
REMARK  189  A    between atoms: _492  and  _494
REMARK  190  A    between atoms: _494  and  _495
REMARK  191  A    between atoms: _499  and  _500
REMARK  192  A    between atoms: _505  and  _507
REMARK  193  A    between atoms: _507  and  _508
REMARK  194  A    between atoms: _507  and  _510
REMARK  195  A    between atoms: _510  and  _511
REMARK  196  A    between atoms: _511  and  _512
REMARK  197  A    between atoms: _517  and  _519
REMARK  198  A    between atoms: _519  and  _520
REMARK  199  A    between atoms: _522  and  _524
REMARK  200  A    between atoms: _524  and  _525
REMARK  201  A    between atoms: _527  and  _529
REMARK  202  A    between atoms: _529  and  _530
REMARK  203  A    between atoms: _529  and  _532
REMARK  204  A    between atoms: _532  and  _533
REMARK  205  A    between atoms: _543  and  _545
REMARK  206  A    between atoms: _545  and  _546
REMARK  207  A    between atoms: _545  and  _548
REMARK  208  A    between atoms: _548  and  _549
REMARK  209  A    between atoms: _552  and  _554
REMARK  210  A    between atoms: _554  and  _555
REMARK  211  A    between atoms: _554  and  _557
REMARK  212  A    between atoms: _557  and  _558
REMARK  213  A    between atoms: _561  and  _563
REMARK  214  A    between atoms: _563  and  _564
REMARK  215  A    between atoms: _563  and  _566
REMARK  216  A    between atoms: _566  and  _567
REMARK  217  A    between atoms: _567  and  _568
REMARK  218  A    between atoms: _568  and  _569
REMARK  219  A    between atoms: _578  and  _580
REMARK  220  A    between atoms: _580  and  _581
REMARK  221  A    between atoms: _580  and  _583
REMARK  222  A    between atoms: _583  and  _584
REMARK  223  A    between atoms: _594  and  _596
REMARK  224  A    between atoms: _596  and  _597
REMARK  225  A    between atoms: _599  and  _601
REMARK  226  A    between atoms: _601  and  _602
REMARK  227  A    between atoms: _601  and  _604
REMARK  228  A    between atoms: _604  and  _605
REMARK  229  A    between atoms: _610  and  _612
REMARK  230  A    between atoms: _612  and  _613
REMARK  231  A    between atoms: _616  and  _618
REMARK  232  A    between atoms: _618  and  _619
REMARK  233  A    between atoms: _618  and  _621
REMARK  234  A    between atoms: _621  and  _622
REMARK  235  A    between atoms: _625  and  _627
REMARK  236  A    between atoms: _627  and  _628
REMARK  237  A    between atoms: _627  and  _630
REMARK  238  A    between atoms: _630  and  _631
REMARK  239  A    between atoms: _637  and  _639
REMARK  240  A    between atoms: _639  and  _640
REMARK  241  A    between atoms: _639  and  _642
REMARK  242  A    between atoms: _642  and  _643
REMARK  243  A    between atoms: _643  and  _644
REMARK  244  A    between atoms: _647  and  _649
REMARK  245  A    between atoms: _649  and  _650
REMARK  246  A    between atoms: _649  and  _652
REMARK  247  A    between atoms: _652  and  _653
REMARK  248  A    between atoms: _653  and  _654
REMARK  249  A    between atoms: _654  and  _655
REMARK                            x       y       z     vdW  Elec       q    Type
REMARK                         _______ _______ _______ _____ _____    ______ ____
ROOT
ATOM      1  NE  ARG A   1       2.380  -3.234  14.549  0.00  0.00    -0.265 N 
ATOM      2  CZ  ARG A   1       1.370  -2.483  14.964  0.00  0.00    +0.342 C 
ATOM      3  NH2 ARG A   1       1.613  -1.298  15.533  0.00  0.00    -0.292 N 
ATOM      4 HH21 ARG A   1       0.823  -0.706  15.860  0.00  0.00    +0.255 HD
ATOM      5 HH22 ARG A   1       2.592  -0.968  15.649  0.00  0.00    +0.255 HD
ATOM      6  NH1 ARG A   1       0.124  -2.904  14.780  0.00  0.00    -0.292 N 
ATOM      7 HH11 ARG A   1      -0.675  -2.321  15.102  0.00  0.00    +0.255 HD
ATOM      8 HH12 ARG A   1      -0.053  -3.816  14.313  0.00  0.00    +0.255 HD
ATOM      9  HE  ARG A   1       3.345  -2.914  14.767  0.00  0.00    +0.259 HD
ENDROOT
BRANCH   1  10
ATOM     10  CD  ARG A   1       2.223  -4.496  13.797  0.00  0.00    +0.174 C 
BRANCH  10  11
ATOM     11  CG  ARG A   1       3.523  -5.307  13.802  0.00  0.00    +0.045 C 
BRANCH  11  12
ATOM     12  CB  ARG A   1       3.384  -6.539  12.929  0.00  0.00    +0.029 C 
BRANCH  12  13
ATOM     13  CA  ARG A   1       4.294  -7.696  13.360  0.00  0.00    +0.133 C 
BRANCH  13  14
ATOM     14  N   ARG A   1       4.588  -8.618  12.261  0.00  0.00    -0.239 NA
ATOM     15  H   ARG A   1       4.047  -8.564  11.375  0.00  0.00    +0.142 HD
ENDBRANCH  13  14
BRANCH  13  16
ATOM     16  C   ARG A   1       3.629  -8.536  14.427  0.00  0.00    +0.224 C 
ATOM     17  O   ARG A   1       2.553  -9.075  14.175  0.00  0.00    -0.287 OA
ENDBRANCH  13  16
ENDBRANCH  12  13
ENDBRANCH  11  12
ENDBRANCH  10  11
ENDBRANCH   1  10
TORSDOF 6
REMARK  Name = ../refined-set-2016/3jzj/3jzj_pocket.pdb
REMARK  249 active torsions:
REMARK  status: ('A' for Active; 'I' for Inactive)
REMARK    1  A    between atoms: _1  and  _3
REMARK    2  A    between atoms: _3  and  _4
REMARK    3  A    between atoms: _3  and  _6
REMARK    4  A    between atoms: _6  and  _7
REMARK    5  A    between atoms: _10  and  _12
REMARK    6  A    between atoms: _12  and  _13
REMARK    7  A    between atoms: _12  and  _15
REMARK    8  A    between atoms: _15  and  _16
REMARK    9  A    between atoms: _19  and  _21
REMARK   10  A    between atoms: _21  and  _22
REMARK   11  A    between atoms: _21  and  _24
REMARK   12  A    between atoms: _24  and  _25
REMARK   13  A    between atoms: _27  and  _29
REMARK   14  A    between atoms: _29  and  _30
REMARK   15  A    between atoms: _29  and  _32
REMARK   16  A    between atoms: _32  and  _33
REMARK   17  A    between atoms: _38  and  _40
REMARK   18  A    between atoms: _40  and  _41
REMARK   19  A    between atoms: _40  and  _43
REMARK   20  A    between atoms: _43  and  _44
REMARK   21  A    between atoms: _44  and  _45
REMARK   22  A    between atoms: _48  and  _50
REMARK   23  A    between atoms: _50  and  _51
REMARK   24  A    between atoms: _54  and  _56
REMARK   25  A    between atoms: _56  and  _57
REMARK   26  A    between atoms: _56  and  _59
REMARK   27  A    between atoms: _59  and  _60
REMARK   28  A    between atoms: _60  and  _61
REMARK   29  A    between atoms: _64  and  _66
REMARK   30  A    between atoms: _66  and  _67
REMARK   31  A    between atoms: _66  and  _69
REMARK   32  A    between atoms: _69  and  _70
REMARK   33  A    between atoms: _70  and  _71
REMARK   34  A    between atoms: _71  and  _72
REMARK   35  A    between atoms: _72  and  _73
REMARK   36  A    between atoms: _77  and  _79
REMARK   37  A    between atoms: _79  and  _80
REMARK   38  A    between atoms: _79  and  _82
REMARK   39  A    between atoms: _82  and  _83
REMARK   40  A    between atoms: _88  and  _89
REMARK   41  A    between atoms: _91  and  _93
REMARK   42  A    between atoms: _93  and  _94
REMARK   43  A    between atoms: _93  and  _96
REMARK   44  A    between atoms: _96  and  _97
REMARK   45  A    between atoms: _102  and  _104
REMARK   46  A    between atoms: _104  and  _105
REMARK   47  A    between atoms: _104  and  _107
REMARK   48  A    between atoms: _111  and  _112
REMARK   49  A    between atoms: _117  and  _119
REMARK   50  A    between atoms: _119  and  _120
REMARK   51  A    between atoms: _119  and  _122
REMARK   52  A    between atoms: _122  and  _123
REMARK   53  A    between atoms: _129  and  _131
REMARK   54  A    between atoms: _131  and  _132
REMARK   55  A    between atoms: _134  and  _136
REMARK   56  A    between atoms: _136  and  _137
REMARK   57  A    between atoms: _136  and  _139
REMARK   58  A    between atoms: _139  and  _140
REMARK   59  A    between atoms: _140  and  _141
REMARK   60  A    between atoms: _144  and  _146
REMARK   61  A    between atoms: _146  and  _147
REMARK   62  A    between atoms: _150  and  _152
REMARK   63  A    between atoms: _152  and  _153
REMARK   64  A    between atoms: _152  and  _155
REMARK   65  A    between atoms: _155  and  _156
REMARK   66  A    between atoms: _161  and  _163
REMARK   67  A    between atoms: _163  and  _164
REMARK   68  A    between atoms: _167  and  _169
REMARK   69  A    between atoms: _169  and  _170
REMARK   70  A    between atoms: _169  and  _172
REMARK   71  A    between atoms: _172  and  _173
REMARK   72  A    between atoms: _173  and  _174
REMARK   73  A    between atoms: _174  and  _175
REMARK   74  A    between atoms: _175  and  _176
REMARK   75  A    between atoms: _180  and  _182
REMARK   76  A    between atoms: _182  and  _183
REMARK   77  A    between atoms: _182  and  _185
REMARK   78  A    between atoms: _185  and  _186
REMARK   79  A    between atoms: _186  and  _187
REMARK   80  A    between atoms: _187  and  _188
REMARK   81  A    between atoms: _188  and  _189
REMARK   82  A    between atoms: _193  and  _195
REMARK   83  A    between atoms: _195  and  _196
REMARK   84  A    between atoms: _195  and  _198
REMARK   85  A    between atoms: _198  and  _199
REMARK   86  A    between atoms: _199  and  _200
REMARK   87  A    between atoms: _200  and  _201
REMARK   88  A    between atoms: _210  and  _212
REMARK   89  A    between atoms: _212  and  _213
REMARK   90  A    between atoms: _212  and  _215
REMARK   91  A    between atoms: _215  and  _216
REMARK   92  A    between atoms: _216  and  _217
REMARK   93  A    between atoms: _220  and  _222
REMARK   94  A    between atoms: _222  and  _223
REMARK   95  A    between atoms: _222  and  _225
REMARK   96  A    between atoms: _228  and  _230
REMARK   97  A    between atoms: _230  and  _231
REMARK   98  A    between atoms: _234  and  _236
REMARK   99  A    between atoms: _236  and  _237
REMARK  100  A    between atoms: _236  and  _239
REMARK  101  A    between atoms: _239  and  _240
REMARK  102  A    between atoms: _250  and  _252
REMARK  103  A    between atoms: _252  and  _253
REMARK  104  A    between atoms: _252  and  _255
REMARK  105  A    between atoms: _258  and  _260
REMARK  106  A    between atoms: _260  and  _261
REMARK  107  A    between atoms: _260  and  _263
REMARK  108  A    between atoms: _263  and  _264
REMARK  109  A    between atoms: _267  and  _269
REMARK  110  A    between atoms: _269  and  _270
REMARK  111  A    between atoms: _269  and  _272
REMARK  112  A    between atoms: _272  and  _273
REMARK  113  A    between atoms: _279  and  _281
REMARK  114  A    between atoms: _281  and  _282
REMARK  115  A    between atoms: _281  and  _284
REMARK  116  A    between atoms: _284  and  _285
REMARK  117  A    between atoms: _285  and  _286
REMARK  118  A    between atoms: _291  and  _293
REMARK  119  A    between atoms: _293  and  _294
REMARK  120  A    between atoms: _293  and  _296
REMARK  121  A    between atoms: _299  and  _301
REMARK  122  A    between atoms: _301  and  _302
REMARK  123  A    between atoms: _301  and  _304
REMARK  124  A    between atoms: _304  and  _305
REMARK  125  A    between atoms: _308  and  _310
REMARK  126  A    between atoms: _310  and  _311
REMARK  127  A    between atoms: _310  and  _313
REMARK  128  A    between atoms: _313  and  _314
REMARK  129  A    between atoms: _317  and  _319
REMARK  130  A    between atoms: _319  and  _320
REMARK  131  A    between atoms: _319  and  _322
REMARK  132  A    between atoms: _322  and  _323
REMARK  133  A    between atoms: _326  and  _328
REMARK  134  A    between atoms: _328  and  _329
REMARK  135  A    between atoms: _328  and  _331
REMARK  136  A    between atoms: _331  and  _332
REMARK  137  A    between atoms: _335  and  _337
REMARK  138  A    between atoms: _337  and  _338
REMARK  139  A    between atoms: _337  and  _340
REMARK  140  A    between atoms: _340  and  _341
REMARK  141  A    between atoms: _341  and  _342
REMARK  142  A    between atoms: _342  and  _343
REMARK  143  A    between atoms: _352  and  _354
REMARK  144  A    between atoms: _354  and  _355
REMARK  145  A    between atoms: _354  and  _357
REMARK  146  A    between atoms: _357  and  _358
REMARK  147  A    between atoms: _361  and  _363
REMARK  148  A    between atoms: _363  and  _364
REMARK  149  A    between atoms: _363  and  _366
REMARK  150  A    between atoms: _366  and  _367
REMARK  151  A    between atoms: _371  and  _372
REMARK  152  A    between atoms: _377  and  _379
REMARK  153  A    between atoms: _379  and  _380
REMARK  154  A    between atoms: _379  and  _382
REMARK  155  A    between atoms: _382  and  _383
REMARK  156  A    between atoms: _388  and  _389
REMARK  157  A    between atoms: _391  and  _393
REMARK  158  A    between atoms: _393  and  _394
REMARK  159  A    between atoms: _393  and  _396
REMARK  160  A    between atoms: _396  and  _397
REMARK  161  A    between atoms: _407  and  _409
REMARK  162  A    between atoms: _409  and  _410
REMARK  163  A    between atoms: _409  and  _412
REMARK  164  A    between atoms: _412  and  _413
REMARK  165  A    between atoms: _419  and  _421
REMARK  166  A    between atoms: _421  and  _422
REMARK  167  A    between atoms: _421  and  _424
REMARK  168  A    between atoms: _424  and  _425
REMARK  169  A    between atoms: _428  and  _430
REMARK  170  A    between atoms: _430  and  _431
REMARK  171  A    between atoms: _430  and  _433
REMARK  172  A    between atoms: _433  and  _434
REMARK  173  A    between atoms: _444  and  _446
REMARK  174  A    between atoms: _446  and  _447
REMARK  175  A    between atoms: _446  and  _449
REMARK  176  A    between atoms: _449  and  _450
REMARK  177  A    between atoms: _450  and  _451
REMARK  178  A    between atoms: _453  and  _455
REMARK  179  A    between atoms: _455  and  _456
REMARK  180  A    between atoms: _455  and  _458
REMARK  181  A    between atoms: _458  and  _459
REMARK  182  A    between atoms: _464  and  _466
REMARK  183  A    between atoms: _466  and  _467
REMARK  184  A    between atoms: _470  and  _471
REMARK  185  A    between atoms: _476  and  _478
REMARK  186  A    between atoms: _478  and  _479
REMARK  187  A    between atoms: _478  and  _481
REMARK  188  A    between atoms: _481  and  _482
REMARK  189  A    between atoms: _492  and  _494
REMARK  190  A    between atoms: _494  and  _495
REMARK  191  A    between atoms: _499  and  _500
REMARK  192  A    between atoms: _505  and  _507
REMARK  193  A    between atoms: _507  and  _508
REMARK  194  A    between atoms: _507  and  _510
REMARK  195  A    between atoms: _510  and  _511
REMARK  196  A    between atoms: _511  and  _512
REMARK  197  A    between atoms: _517  and  _519
REMARK  198  A    between atoms: _519  and  _520
REMARK  199  A    between atoms: _522  and  _524
REMARK  200  A    between atoms: _524  and  _525
REMARK  201  A    between atoms: _527  and  _529
REMARK  202  A    between atoms: _529  and  _530
REMARK  203  A    between atoms: _529  and  _532
REMARK  204  A    between atoms: _532  and  _533
REMARK  205  A    between atoms: _543  and  _545
REMARK  206  A    between atoms: _545  and  _546
REMARK  207  A    between atoms: _545  and  _548
REMARK  208  A    between atoms: _548  and  _549
REMARK  209  A    between atoms: _552  and  _554
REMARK  210  A    between atoms: _554  and  _555
REMARK  211  A    between atoms: _554  and  _557
REMARK  212  A    between atoms: _557  and  _558
REMARK  213  A    between atoms: _561  and  _563
REMARK  214  A    between atoms: _563  and  _564
REMARK  215  A    between atoms: _563  and  _566
REMARK  216  A    between atoms: _566  and  _567
REMARK  217  A    between atoms: _567  and  _568
REMARK  218  A    between atoms: _568  and  _569
REMARK  219  A    between atoms: _578  and  _580
REMARK  220  A    between atoms: _580  and  _581
REMARK  221  A    between atoms: _580  and  _583
REMARK  222  A    between atoms: _583  and  _584
REMARK  223  A    between atoms: _594  and  _596
REMARK  224  A    between atoms: _596  and  _597
REMARK  225  A    between atoms: _599  and  _601
REMARK  226  A    between atoms: _601  and  _602
REMARK  227  A    between atoms: _601  and  _604
REMARK  228  A    between atoms: _604  and  _605
REMARK  229  A    between atoms: _610  and  _612
REMARK  230  A    between atoms: _612  and  _613
REMARK  231  A    between atoms: _616  and  _618
REMARK  232  A    between atoms: _618  and  _619
REMARK  233  A    between atoms: _618  and  _621
REMARK  234  A    between atoms: _621  and  _622
REMARK  235  A    between atoms: _625  and  _627
REMARK  236  A    between atoms: _627  and  _628
REMARK  237  A    between atoms: _627  and  _630
REMARK  238  A    between atoms: _630  and  _631
REMARK  239  A    between atoms: _637  and  _639
REMARK  240  A    between atoms: _639  and  _640
REMARK  241  A    between atoms: _639  and  _642
REMARK  242  A    between atoms: _642  and  _643
REMARK  243  A    between atoms: _643  and  _644
REMARK  244  A    between atoms: _647  and  _649
REMARK  245  A    between atoms: _649  and  _650
REMARK  246  A    between atoms: _649  and  _652
REMARK  247  A    between atoms: _652  and  _653
REMARK  248  A    between atoms: _653  and  _654
REMARK  249  A    between atoms: _654  and  _655
REMARK                            x       y       z     vdW  Elec       q    Type
REMARK                         _______ _______ _______ _____ _____    ______ ____
ROOT
ATOM      1  C   ALA A   3       1.781 -12.892  22.861  0.00  0.00    +0.241 C 
ATOM      2  O   ALA A   3       1.852 -14.085  23.198  0.00  0.00    -0.273 OA
ATOM      3  N   TRP A   4       1.901 -12.491  21.592  0.00  0.00    -0.297 N 
ATOM      4  H   TRP A   4       1.852 -11.481  21.350  0.00  0.00    +0.150 HD
ENDROOT
BRANCH   1   5
ATOM      5  CA  ALA A   3       1.459 -11.797  23.863  0.00  0.00    +0.149 C 
ATOM      6  CB  ALA A   3      -0.030 -11.874  24.189  0.00  0.00    +0.031 C 
BRANCH   5   9
ATOM      7  C   VAL A   2       3.089 -10.006  23.341  0.00  0.00    +0.241 C 
ATOM      8  O   VAL A   2       4.020 -10.713  23.728  0.00  0.00    -0.273 OA
ATOM      9  N   ALA A   3       1.810 -10.437  23.385  0.00  0.00    -0.297 N 
ATOM     10  H   ALA A   3       1.050  -9.798  23.075  0.00  0.00    +0.150 HD
BRANCH   7  11
ATOM     11  CA  VAL A   2       3.374  -8.598  22.832  0.00  0.00    +0.148 C 
BRANCH  11  13
ATOM     12  C   GLU A   1       2.478  -9.026  20.652  0.00  0.00    +0.238 C 
ATOM     13  N   VAL A   2       2.547  -8.207  21.693  0.00  0.00    -0.297 N 
ATOM     14  H   VAL A   2       2.025  -7.308  21.698  0.00  0.00    +0.150 HD
ATOM     15  O   GLU A   1       3.045 -10.134  20.639  0.00  0.00    -0.274 OA
BRANCH  12  16
ATOM     16  CA  GLU A   1       1.647  -8.587  19.435  0.00  0.00    +0.145 C 
BRANCH  16  17
ATOM     17  N   GLU A   1       2.196  -9.195  18.236  0.00  0.00    -0.238 NA
ATOM     18  H   GLU A   1       1.592  -9.793  17.636  0.00  0.00    +0.142 HD
ENDBRANCH  16  17
BRANCH  16  19
ATOM     19  CB  GLU A   1       0.184  -8.960  19.579  0.00  0.00    +0.038 C 
BRANCH  19  20
ATOM     20  CG  GLU A   1      -0.619  -7.872  20.361  0.00  0.00    +0.116 C 
BRANCH  20  21
ATOM     21  CD  GLU A   1      -0.745  -8.161  21.866  0.00  0.00    +0.365 C 
ATOM     22  OE2 GLU A   1      -0.972  -7.168  22.610  0.00  0.00    -0.246 OA
ATOM     23  OE1 GLU A   1      -0.618  -9.321  22.302  0.00  0.00    -0.246 OA
ENDBRANCH  20  21
ENDBRANCH  19  20
ENDBRANCH  16  19
ENDBRANCH  12  16
ENDBRANCH  11  13
BRANCH  11  24
ATOM     24  CB  VAL A   2       3.337  -7.580  24.004  0.00  0.00    +0.027 C 
ATOM     25  CG2 VAL A   2       1.871  -7.227  24.417  0.00  0.00    +0.002 C 
ATOM     26  CG1 VAL A   2       4.075  -6.298  23.595  0.00  0.00    +0.002 C 
ENDBRANCH  11  24
ENDBRANCH   7  11
ENDBRANCH   5   9
ENDBRANCH   1   5
BRANCH   3  27
ATOM     27  CA  TRP A   4       2.104 -13.502  20.541  0.00  0.00    +0.153 C 
BRANCH  27  28
ATOM     28  C   TRP A   4       3.520 -14.024  20.512  0.00  0.00    +0.241 C 
ATOM     29  N   VAL A   5       4.460 -13.260  21.089  0.00  0.00    -0.298 N 
ATOM     30  H   VAL A   5       4.214 -12.361  21.551  0.00  0.00    +0.150 HD
ATOM     31  O   TRP A   4       3.771 -15.081  19.928  0.00  0.00    -0.273 OA
BRANCH  29  32
ATOM     32  CA  VAL A   5       5.843 -13.736  21.045  0.00  0.00    +0.137 C 
BRANCH  32  33
ATOM     33  CB  VAL A   5       6.804 -12.689  21.651  0.00  0.00    +0.026 C 
ATOM     34  CG2 VAL A   5       8.247 -13.224  21.615  0.00  0.00    +0.002 C 
ATOM     35  CG1 VAL A   5       6.722 -11.350  20.875  0.00  0.00    +0.002 C 
ENDBRANCH  32  33
BRANCH  32  36
ATOM     36  C   VAL A   5       5.986 -15.129  21.701  0.00  0.00    +0.227 C 
ATOM     37  O   VAL A   5       6.487 -16.067  21.059  0.00  0.00    -0.286 OA
ENDBRANCH  32  36
ENDBRANCH  29  32
ENDBRANCH  27  28
BRANCH  27  38
ATOM     38  CB  TRP A   4       1.756 -12.951  19.155  0.00  0.00    +0.057 C 
BRANCH  38  39
ATOM     39  CG  TRP A   4       0.342 -12.596  18.998  0.00  0.00    -0.002 A 
ATOM     40  CD1 TRP A   4      -0.671 -12.727  19.933  0.00  0.00    +0.068 A 
ATOM     41  NE1 TRP A   4      -1.852 -12.262  19.427  0.00  0.00    -0.352 N 
ATOM     42  HE1 TRP A   4      -2.765 -12.259  19.926  0.00  0.00    +0.166 HD
ATOM     43  CE2 TRP A   4      -1.636 -11.799  18.149  0.00  0.00    +0.056 A 
ATOM     44  CZ2 TRP A   4      -2.519 -11.165  17.272  0.00  0.00    +0.017 A 
ATOM     45  CH2 TRP A   4      -2.005 -10.792  16.047  0.00  0.00    +0.001 A 
ATOM     46  CZ3 TRP A   4      -0.631 -10.971  15.711  0.00  0.00    +0.000 A 
ATOM     47  CE3 TRP A   4       0.246 -11.562  16.596  0.00  0.00    +0.001 A 
ATOM     48  CD2 TRP A   4      -0.245 -11.958  17.860  0.00  0.00    +0.013 A 
ENDBRANCH  38  39
ENDBRANCH  27  38
ENDBRANCH   3  27
TORSDOF 17
REMARK  Name = ../refined-set-2016/3jzj/3jzj_pocket.pdb
REMARK  249 active torsions:
REMARK  status: ('A' for Active; 'I' for Inactive)
REMARK    1  A    between atoms: _1  and  _3
REMARK    2  A    between atoms: _3  and  _4
REMARK    3  A    between atoms: _3  and  _6
REMARK    4  A    between atoms: _6  and  _7
REMARK    5  A    between atoms: _10  and  _12
REMARK    6  A    between atoms: _12  and  _13
REMARK    7  A    between atoms: _12  and  _15
REMARK    8  A    between atoms: _15  and  _16
REMARK    9  A    between atoms: _19  and  _21
REMARK   10  A    between atoms: _21  and  _22
REMARK   11  A    between atoms: _21  and  _24
REMARK   12  A    between atoms: _24  and  _25
REMARK   13  A    between atoms: _27  and  _29
REMARK   14  A    between atoms: _29  and  _30
REMARK   15  A    between atoms: _29  and  _32
REMARK   16  A    between atoms: _32  and  _33
REMARK   17  A    between atoms: _38  and  _40
REMARK   18  A    between atoms: _40  and  _41
REMARK   19  A    between atoms: _40  and  _43
REMARK   20  A    between atoms: _43  and  _44
REMARK   21  A    between atoms: _44  and  _45
REMARK   22  A    between atoms: _48  and  _50
REMARK   23  A    between atoms: _50  and  _51
REMARK   24  A    between atoms: _54  and  _56
REMARK   25  A    between atoms: _56  and  _57
REMARK   26  A    between atoms: _56  and  _59
REMARK   27  A    between atoms: _59  and  _60
REMARK   28  A    between atoms: _60  and  _61
REMARK   29  A    between atoms: _64  and  _66
REMARK   30  A    between atoms: _66  and  _67
REMARK   31  A    between atoms: _66  and  _69
REMARK   32  A    between atoms: _69  and  _70
REMARK   33  A    between atoms: _70  and  _71
REMARK   34  A    between atoms: _71  and  _72
REMARK   35  A    between atoms: _72  and  _73
REMARK   36  A    between atoms: _77  and  _79
REMARK   37  A    between atoms: _79  and  _80
REMARK   38  A    between atoms: _79  and  _82
REMARK   39  A    between atoms: _82  and  _83
REMARK   40  A    between atoms: _88  and  _89
REMARK   41  A    between atoms: _91  and  _93
REMARK   42  A    between atoms: _93  and  _94
REMARK   43  A    between atoms: _93  and  _96
REMARK   44  A    between atoms: _96  and  _97
REMARK   45  A    between atoms: _102  and  _104
REMARK   46  A    between atoms: _104  and  _105
REMARK   47  A    between atoms: _104  and  _107
REMARK   48  A    between atoms: _111  and  _112
REMARK   49  A    between atoms: _117  and  _119
REMARK   50  A    between atoms: _119  and  _120
REMARK   51  A    between atoms: _119  and  _122
REMARK   52  A    between atoms: _122  and  _123
REMARK   53  A    between atoms: _129  and  _131
REMARK   54  A    between atoms: _131  and  _132
REMARK   55  A    between atoms: _134  and  _136
REMARK   56  A    between atoms: _136  and  _137
REMARK   57  A    between atoms: _136  and  _139
REMARK   58  A    between atoms: _139  and  _140
REMARK   59  A    between atoms: _140  and  _141
REMARK   60  A    between atoms: _144  and  _146
REMARK   61  A    between atoms: _146  and  _147
REMARK   62  A    between atoms: _150  and  _152
REMARK   63  A    between atoms: _152  and  _153
REMARK   64  A    between atoms: _152  and  _155
REMARK   65  A    between atoms: _155  and  _156
REMARK   66  A    between atoms: _161  and  _163
REMARK   67  A    between atoms: _163  and  _164
REMARK   68  A    between atoms: _167  and  _169
REMARK   69  A    between atoms: _169  and  _170
REMARK   70  A    between atoms: _169  and  _172
REMARK   71  A    between atoms: _172  and  _173
REMARK   72  A    between atoms: _173  and  _174
REMARK   73  A    between atoms: _174  and  _175
REMARK   74  A    between atoms: _175  and  _176
REMARK   75  A    between atoms: _180  and  _182
REMARK   76  A    between atoms: _182  and  _183
REMARK   77  A    between atoms: _182  and  _185
REMARK   78  A    between atoms: _185  and  _186
REMARK   79  A    between atoms: _186  and  _187
REMARK   80  A    between atoms: _187  and  _188
REMARK   81  A    between atoms: _188  and  _189
REMARK   82  A    between atoms: _193  and  _195
REMARK   83  A    between atoms: _195  and  _196
REMARK   84  A    between atoms: _195  and  _198
REMARK   85  A    between atoms: _198  and  _199
REMARK   86  A    between atoms: _199  and  _200
REMARK   87  A    between atoms: _200  and  _201
REMARK   88  A    between atoms: _210  and  _212
REMARK   89  A    between atoms: _212  and  _213
REMARK   90  A    between atoms: _212  and  _215
REMARK   91  A    between atoms: _215  and  _216
REMARK   92  A    between atoms: _216  and  _217
REMARK   93  A    between atoms: _220  and  _222
REMARK   94  A    between atoms: _222  and  _223
REMARK   95  A    between atoms: _222  and  _225
REMARK   96  A    between atoms: _228  and  _230
REMARK   97  A    between atoms: _230  and  _231
REMARK   98  A    between atoms: _234  and  _236
REMARK   99  A    between atoms: _236  and  _237
REMARK  100  A    between atoms: _236  and  _239
REMARK  101  A    between atoms: _239  and  _240
REMARK  102  A    between atoms: _250  and  _252
REMARK  103  A    between atoms: _252  and  _253
REMARK  104  A    between atoms: _252  and  _255
REMARK  105  A    between atoms: _258  and  _260
REMARK  106  A    between atoms: _260  and  _261
REMARK  107  A    between atoms: _260  and  _263
REMARK  108  A    between atoms: _263  and  _264
REMARK  109  A    between atoms: _267  and  _269
REMARK  110  A    between atoms: _269  and  _270
REMARK  111  A    between atoms: _269  and  _272
REMARK  112  A    between atoms: _272  and  _273
REMARK  113  A    between atoms: _279  and  _281
REMARK  114  A    between atoms: _281  and  _282
REMARK  115  A    between atoms: _281  and  _284
REMARK  116  A    between atoms: _284  and  _285
REMARK  117  A    between atoms: _285  and  _286
REMARK  118  A    between atoms: _291  and  _293
REMARK  119  A    between atoms: _293  and  _294
REMARK  120  A    between atoms: _293  and  _296
REMARK  121  A    between atoms: _299  and  _301
REMARK  122  A    between atoms: _301  and  _302
REMARK  123  A    between atoms: _301  and  _304
REMARK  124  A    between atoms: _304  and  _305
REMARK  125  A    between atoms: _308  and  _310
REMARK  126  A    between atoms: _310  and  _311
REMARK  127  A    between atoms: _310  and  _313
REMARK  128  A    between atoms: _313  and  _314
REMARK  129  A    between atoms: _317  and  _319
REMARK  130  A    between atoms: _319  and  _320
REMARK  131  A    between atoms: _319  and  _322
REMARK  132  A    between atoms: _322  and  _323
REMARK  133  A    between atoms: _326  and  _328
REMARK  134  A    between atoms: _328  and  _329
REMARK  135  A    between atoms: _328  and  _331
REMARK  136  A    between atoms: _331  and  _332
REMARK  137  A    between atoms: _335  and  _337
REMARK  138  A    between atoms: _337  and  _338
REMARK  139  A    between atoms: _337  and  _340
REMARK  140  A    between atoms: _340  and  _341
REMARK  141  A    between atoms: _341  and  _342
REMARK  142  A    between atoms: _342  and  _343
REMARK  143  A    between atoms: _352  and  _354
REMARK  144  A    between atoms: _354  and  _355
REMARK  145  A    between atoms: _354  and  _357
REMARK  146  A    between atoms: _357  and  _358
REMARK  147  A    between atoms: _361  and  _363
REMARK  148  A    between atoms: _363  and  _364
REMARK  149  A    between atoms: _363  and  _366
REMARK  150  A    between atoms: _366  and  _367
REMARK  151  A    between atoms: _371  and  _372
REMARK  152  A    between atoms: _377  and  _379
REMARK  153  A    between atoms: _379  and  _380
REMARK  154  A    between atoms: _379  and  _382
REMARK  155  A    between atoms: _382  and  _383
REMARK  156  A    between atoms: _388  and  _389
REMARK  157  A    between atoms: _391  and  _393
REMARK  158  A    between atoms: _393  and  _394
REMARK  159  A    between atoms: _393  and  _396
REMARK  160  A    between atoms: _396  and  _397
REMARK  161  A    between atoms: _407  and  _409
REMARK  162  A    between atoms: _409  and  _410
REMARK  163  A    between atoms: _409  and  _412
REMARK  164  A    between atoms: _412  and  _413
REMARK  165  A    between atoms: _419  and  _421
REMARK  166  A    between atoms: _421  and  _422
REMARK  167  A    between atoms: _421  and  _424
REMARK  168  A    between atoms: _424  and  _425
REMARK  169  A    between atoms: _428  and  _430
REMARK  170  A    between atoms: _430  and  _431
REMARK  171  A    between atoms: _430  and  _433
REMARK  172  A    between atoms: _433  and  _434
REMARK  173  A    between atoms: _444  and  _446
REMARK  174  A    between atoms: _446  and  _447
REMARK  175  A    between atoms: _446  and  _449
REMARK  176  A    between atoms: _449  and  _450
REMARK  177  A    between atoms: _450  and  _451
REMARK  178  A    between atoms: _453  and  _455
REMARK  179  A    between atoms: _455  and  _456
REMARK  180  A    between atoms: _455  and  _458
REMARK  181  A    between atoms: _458  and  _459
REMARK  182  A    between atoms: _464  and  _466
REMARK  183  A    between atoms: _466  and  _467
REMARK  184  A    between atoms: _470  and  _471
REMARK  185  A    between atoms: _476  and  _478
REMARK  186  A    between atoms: _478  and  _479
REMARK  187  A    between atoms: _478  and  _481
REMARK  188  A    between atoms: _481  and  _482
REMARK  189  A    between atoms: _492  and  _494
REMARK  190  A    between atoms: _494  and  _495
REMARK  191  A    between atoms: _499  and  _500
REMARK  192  A    between atoms: _505  and  _507
REMARK  193  A    between atoms: _507  and  _508
REMARK  194  A    between atoms: _507  and  _510
REMARK  195  A    between atoms: _510  and  _511
REMARK  196  A    between atoms: _511  and  _512
REMARK  197  A    between atoms: _517  and  _519
REMARK  198  A    between atoms: _519  and  _520
REMARK  199  A    between atoms: _522  and  _524
REMARK  200  A    between atoms: _524  and  _525
REMARK  201  A    between atoms: _527  and  _529
REMARK  202  A    between atoms: _529  and  _530
REMARK  203  A    between atoms: _529  and  _532
REMARK  204  A    between atoms: _532  and  _533
REMARK  205  A    between atoms: _543  and  _545
REMARK  206  A    between atoms: _545  and  _546
REMARK  207  A    between atoms: _545  and  _548
REMARK  208  A    between atoms: _548  and  _549
REMARK  209  A    between atoms: _552  and  _554
REMARK  210  A    between atoms: _554  and  _555
REMARK  211  A    between atoms: _554  and  _557
REMARK  212  A    between atoms: _557  and  _558
REMARK  213  A    between atoms: _561  and  _563
REMARK  214  A    between atoms: _563  and  _564
REMARK  215  A    between atoms: _563  and  _566
REMARK  216  A    between atoms: _566  and  _567
REMARK  217  A    between atoms: _567  and  _568
REMARK  218  A    between atoms: _568  and  _569
REMARK  219  A    between atoms: _578  and  _580
REMARK  220  A    between atoms: _580  and  _581
REMARK  221  A    between atoms: _580  and  _583
REMARK  222  A    between atoms: _583  and  _584
REMARK  223  A    between atoms: _594  and  _596
REMARK  224  A    between atoms: _596  and  _597
REMARK  225  A    between atoms: _599  and  _601
REMARK  226  A    between atoms: _601  and  _602
REMARK  227  A    between atoms: _601  and  _604
REMARK  228  A    between atoms: _604  and  _605
REMARK  229  A    between atoms: _610  and  _612
REMARK  230  A    between atoms: _612  and  _613
REMARK  231  A    between atoms: _616  and  _618
REMARK  232  A    between atoms: _618  and  _619
REMARK  233  A    between atoms: _618  and  _621
REMARK  234  A    between atoms: _621  and  _622
REMARK  235  A    between atoms: _625  and  _627
REMARK  236  A    between atoms: _627  and  _628
REMARK  237  A    between atoms: _627  and  _630
REMARK  238  A    between atoms: _630  and  _631
REMARK  239  A    between atoms: _637  and  _639
REMARK  240  A    between atoms: _639  and  _640
REMARK  241  A    between atoms: _639  and  _642
REMARK  242  A    between atoms: _642  and  _643
REMARK  243  A    between atoms: _643  and  _644
REMARK  244  A    between atoms: _647  and  _649
REMARK  245  A    between atoms: _649  and  _650
REMARK  246  A    between atoms: _649  and  _652
REMARK  247  A    between atoms: _652  and  _653
REMARK  248  A    between atoms: _653  and  _654
REMARK  249  A    between atoms: _654  and  _655
REMARK                            x       y       z     vdW  Elec       q    Type
REMARK                         _______ _______ _______ _____ _____    ______ ____
ROOT
ATOM      1  C   ASP A   1       3.330 -18.672  20.645  0.00  0.00    +0.239 C 
ATOM      2  O   ASP A   1       3.437 -19.911  20.599  0.00  0.00    -0.274 OA
ATOM      3  N   PHE A   2       3.867 -17.874  19.712  0.00  0.00    -0.298 N 
ATOM      4  H   PHE A   2       3.824 -16.844  19.852  0.00  0.00    +0.150 HD
ENDROOT
BRANCH   1   5
ATOM      5  CA  ASP A   1       2.601 -17.993  21.827  0.00  0.00    +0.156 C 
BRANCH   5   6
ATOM      6  N   ASP A   1       3.532 -17.126  22.571  0.00  0.00    -0.238 NA
ATOM      7  H   ASP A   1       3.257 -16.138  22.746  0.00  0.00    +0.142 HD
ENDBRANCH   5   6
BRANCH   5   8
ATOM      8  CB  ASP A   1       1.425 -17.137  21.346  0.00  0.00    +0.140 C 
BRANCH   8   9
ATOM      9  CG  ASP A   1       0.232 -17.947  20.823  0.00  0.00    +0.367 C 
ATOM     10  OD2 ASP A   1       0.163 -19.209  20.993  0.00  0.00    -0.246 OA
ATOM     11  OD1 ASP A   1      -0.661 -17.292  20.196  0.00  0.00    -0.246 OA
ENDBRANCH   8   9
ENDBRANCH   5   8
ENDBRANCH   1   5
BRANCH   3  12
ATOM     12  CA  PHE A   2       4.509 -18.389  18.510  0.00  0.00    +0.141 C 
BRANCH  12  13
ATOM     13  C   PHE A   2       5.813 -19.106  18.821  0.00  0.00    +0.227 C 
ATOM     14  O   PHE A   2       6.097 -20.166  18.256  0.00  0.00    -0.286 OA
ENDBRANCH  12  13
BRANCH  12  15
ATOM     15  CB  PHE A   2       4.835 -17.263  17.491  0.00  0.00    +0.054 C 
BRANCH  15  16
ATOM     16  CG  PHE A   2       3.636 -16.520  16.939  0.00  0.00    -0.020 A 
ATOM     17  CD2 PHE A   2       2.353 -17.078  16.917  0.00  0.00    -0.004 A 
ATOM     18  CE2 PHE A   2       1.264 -16.365  16.364  0.00  0.00    -0.000 A 
ATOM     19  CZ  PHE A   2       1.451 -15.100  15.827  0.00  0.00    -0.000 A 
ATOM     20  CE1 PHE A   2       2.699 -14.552  15.841  0.00  0.00    -0.000 A 
ATOM     21  CD1 PHE A   2       3.796 -15.232  16.396  0.00  0.00    -0.004 A 
ENDBRANCH  15  16
ENDBRANCH  12  15
ENDBRANCH   3  12
TORSDOF 8
REMARK  Name = ../refined-set-2016/3jzj/3jzj_pocket.pdb
REMARK  249 active torsions:
REMARK  status: ('A' for Active; 'I' for Inactive)
REMARK    1  A    between atoms: _1  and  _3
REMARK    2  A    between atoms: _3  and  _4
REMARK    3  A    between atoms: _3  and  _6
REMARK    4  A    between atoms: _6  and  _7
REMARK    5  A    between atoms: _10  and  _12
REMARK    6  A    between atoms: _12  and  _13
REMARK    7  A    between atoms: _12  and  _15
REMARK    8  A    between atoms: _15  and  _16
REMARK    9  A    between atoms: _19  and  _21
REMARK   10  A    between atoms: _21  and  _22
REMARK   11  A    between atoms: _21  and  _24
REMARK   12  A    between atoms: _24  and  _25
REMARK   13  A    between atoms: _27  and  _29
REMARK   14  A    between atoms: _29  and  _30
REMARK   15  A    between atoms: _29  and  _32
REMARK   16  A    between atoms: _32  and  _33
REMARK   17  A    between atoms: _38  and  _40
REMARK   18  A    between atoms: _40  and  _41
REMARK   19  A    between atoms: _40  and  _43
REMARK   20  A    between atoms: _43  and  _44
REMARK   21  A    between atoms: _44  and  _45
REMARK   22  A    between atoms: _48  and  _50
REMARK   23  A    between atoms: _50  and  _51
REMARK   24  A    between atoms: _54  and  _56
REMARK   25  A    between atoms: _56  and  _57
REMARK   26  A    between atoms: _56  and  _59
REMARK   27  A    between atoms: _59  and  _60
REMARK   28  A    between atoms: _60  and  _61
REMARK   29  A    between atoms: _64  and  _66
REMARK   30  A    between atoms: _66  and  _67
REMARK   31  A    between atoms: _66  and  _69
REMARK   32  A    between atoms: _69  and  _70
REMARK   33  A    between atoms: _70  and  _71
REMARK   34  A    between atoms: _71  and  _72
REMARK   35  A    between atoms: _72  and  _73
REMARK   36  A    between atoms: _77  and  _79
REMARK   37  A    between atoms: _79  and  _80
REMARK   38  A    between atoms: _79  and  _82
REMARK   39  A    between atoms: _82  and  _83
REMARK   40  A    between atoms: _88  and  _89
REMARK   41  A    between atoms: _91  and  _93
REMARK   42  A    between atoms: _93  and  _94
REMARK   43  A    between atoms: _93  and  _96
REMARK   44  A    between atoms: _96  and  _97
REMARK   45  A    between atoms: _102  and  _104
REMARK   46  A    between atoms: _104  and  _105
REMARK   47  A    between atoms: _104  and  _107
REMARK   48  A    between atoms: _111  and  _112
REMARK   49  A    between atoms: _117  and  _119
REMARK   50  A    between atoms: _119  and  _120
REMARK   51  A    between atoms: _119  and  _122
REMARK   52  A    between atoms: _122  and  _123
REMARK   53  A    between atoms: _129  and  _131
REMARK   54  A    between atoms: _131  and  _132
REMARK   55  A    between atoms: _134  and  _136
REMARK   56  A    between atoms: _136  and  _137
REMARK   57  A    between atoms: _136  and  _139
REMARK   58  A    between atoms: _139  and  _140
REMARK   59  A    between atoms: _140  and  _141
REMARK   60  A    between atoms: _144  and  _146
REMARK   61  A    between atoms: _146  and  _147
REMARK   62  A    between atoms: _150  and  _152
REMARK   63  A    between atoms: _152  and  _153
REMARK   64  A    between atoms: _152  and  _155
REMARK   65  A    between atoms: _155  and  _156
REMARK   66  A    between atoms: _161  and  _163
REMARK   67  A    between atoms: _163  and  _164
REMARK   68  A    between atoms: _167  and  _169
REMARK   69  A    between atoms: _169  and  _170
REMARK   70  A    between atoms: _169  and  _172
REMARK   71  A    between atoms: _172  and  _173
REMARK   72  A    between atoms: _173  and  _174
REMARK   73  A    between atoms: _174  and  _175
REMARK   74  A    between atoms: _175  and  _176
REMARK   75  A    between atoms: _180  and  _182
REMARK   76  A    between atoms: _182  and  _183
REMARK   77  A    between atoms: _182  and  _185
REMARK   78  A    between atoms: _185  and  _186
REMARK   79  A    between atoms: _186  and  _187
REMARK   80  A    between atoms: _187  and  _188
REMARK   81  A    between atoms: _188  and  _189
REMARK   82  A    between atoms: _193  and  _195
REMARK   83  A    between atoms: _195  and  _196
REMARK   84  A    between atoms: _195  and  _198
REMARK   85  A    between atoms: _198  and  _199
REMARK   86  A    between atoms: _199  and  _200
REMARK   87  A    between atoms: _200  and  _201
REMARK   88  A    between atoms: _210  and  _212
REMARK   89  A    between atoms: _212  and  _213
REMARK   90  A    between atoms: _212  and  _215
REMARK   91  A    between atoms: _215  and  _216
REMARK   92  A    between atoms: _216  and  _217
REMARK   93  A    between atoms: _220  and  _222
REMARK   94  A    between atoms: _222  and  _223
REMARK   95  A    between atoms: _222  and  _225
REMARK   96  A    between atoms: _228  and  _230
REMARK   97  A    between atoms: _230  and  _231
REMARK   98  A    between atoms: _234  and  _236
REMARK   99  A    between atoms: _236  and  _237
REMARK  100  A    between atoms: _236  and  _239
REMARK  101  A    between atoms: _239  and  _240
REMARK  102  A    between atoms: _250  and  _252
REMARK  103  A    between atoms: _252  and  _253
REMARK  104  A    between atoms: _252  and  _255
REMARK  105  A    between atoms: _258  and  _260
REMARK  106  A    between atoms: _260  and  _261
REMARK  107  A    between atoms: _260  and  _263
REMARK  108  A    between atoms: _263  and  _264
REMARK  109  A    between atoms: _267  and  _269
REMARK  110  A    between atoms: _269  and  _270
REMARK  111  A    between atoms: _269  and  _272
REMARK  112  A    between atoms: _272  and  _273
REMARK  113  A    between atoms: _279  and  _281
REMARK  114  A    between atoms: _281  and  _282
REMARK  115  A    between atoms: _281  and  _284
REMARK  116  A    between atoms: _284  and  _285
REMARK  117  A    between atoms: _285  and  _286
REMARK  118  A    between atoms: _291  and  _293
REMARK  119  A    between atoms: _293  and  _294
REMARK  120  A    between atoms: _293  and  _296
REMARK  121  A    between atoms: _299  and  _301
REMARK  122  A    between atoms: _301  and  _302
REMARK  123  A    between atoms: _301  and  _304
REMARK  124  A    between atoms: _304  and  _305
REMARK  125  A    between atoms: _308  and  _310
REMARK  126  A    between atoms: _310  and  _311
REMARK  127  A    between atoms: _310  and  _313
REMARK  128  A    between atoms: _313  and  _314
REMARK  129  A    between atoms: _317  and  _319
REMARK  130  A    between atoms: _319  and  _320
REMARK  131  A    between atoms: _319  and  _322
REMARK  132  A    between atoms: _322  and  _323
REMARK  133  A    between atoms: _326  and  _328
REMARK  134  A    between atoms: _328  and  _329
REMARK  135  A    between atoms: _328  and  _331
REMARK  136  A    between atoms: _331  and  _332
REMARK  137  A    between atoms: _335  and  _337
REMARK  138  A    between atoms: _337  and  _338
REMARK  139  A    between atoms: _337  and  _340
REMARK  140  A    between atoms: _340  and  _341
REMARK  141  A    between atoms: _341  and  _342
REMARK  142  A    between atoms: _342  and  _343
REMARK  143  A    between atoms: _352  and  _354
REMARK  144  A    between atoms: _354  and  _355
REMARK  145  A    between atoms: _354  and  _357
REMARK  146  A    between atoms: _357  and  _358
REMARK  147  A    between atoms: _361  and  _363
REMARK  148  A    between atoms: _363  and  _364
REMARK  149  A    between atoms: _363  and  _366
REMARK  150  A    between atoms: _366  and  _367
REMARK  151  A    between atoms: _371  and  _372
REMARK  152  A    between atoms: _377  and  _379
REMARK  153  A    between atoms: _379  and  _380
REMARK  154  A    between atoms: _379  and  _382
REMARK  155  A    between atoms: _382  and  _383
REMARK  156  A    between atoms: _388  and  _389
REMARK  157  A    between atoms: _391  and  _393
REMARK  158  A    between atoms: _393  and  _394
REMARK  159  A    between atoms: _393  and  _396
REMARK  160  A    between atoms: _396  and  _397
REMARK  161  A    between atoms: _407  and  _409
REMARK  162  A    between atoms: _409  and  _410
REMARK  163  A    between atoms: _409  and  _412
REMARK  164  A    between atoms: _412  and  _413
REMARK  165  A    between atoms: _419  and  _421
REMARK  166  A    between atoms: _421  and  _422
REMARK  167  A    between atoms: _421  and  _424
REMARK  168  A    between atoms: _424  and  _425
REMARK  169  A    between atoms: _428  and  _430
REMARK  170  A    between atoms: _430  and  _431
REMARK  171  A    between atoms: _430  and  _433
REMARK  172  A    between atoms: _433  and  _434
REMARK  173  A    between atoms: _444  and  _446
REMARK  174  A    between atoms: _446  and  _447
REMARK  175  A    between atoms: _446  and  _449
REMARK  176  A    between atoms: _449  and  _450
REMARK  177  A    between atoms: _450  and  _451
REMARK  178  A    between atoms: _453  and  _455
REMARK  179  A    between atoms: _455  and  _456
REMARK  180  A    between atoms: _455  and  _458
REMARK  181  A    between atoms: _458  and  _459
REMARK  182  A    between atoms: _464  and  _466
REMARK  183  A    between atoms: _466  and  _467
REMARK  184  A    between atoms: _470  and  _471
REMARK  185  A    between atoms: _476  and  _478
REMARK  186  A    between atoms: _478  and  _479
REMARK  187  A    between atoms: _478  and  _481
REMARK  188  A    between atoms: _481  and  _482
REMARK  189  A    between atoms: _492  and  _494
REMARK  190  A    between atoms: _494  and  _495
REMARK  191  A    between atoms: _499  and  _500
REMARK  192  A    between atoms: _505  and  _507
REMARK  193  A    between atoms: _507  and  _508
REMARK  194  A    between atoms: _507  and  _510
REMARK  195  A    between atoms: _510  and  _511
REMARK  196  A    between atoms: _511  and  _512
REMARK  197  A    between atoms: _517  and  _519
REMARK  198  A    between atoms: _519  and  _520
REMARK  199  A    between atoms: _522  and  _524
REMARK  200  A    between atoms: _524  and  _525
REMARK  201  A    between atoms: _527  and  _529
REMARK  202  A    between atoms: _529  and  _530
REMARK  203  A    between atoms: _529  and  _532
REMARK  204  A    between atoms: _532  and  _533
REMARK  205  A    between atoms: _543  and  _545
REMARK  206  A    between atoms: _545  and  _546
REMARK  207  A    between atoms: _545  and  _548
REMARK  208  A    between atoms: _548  and  _549
REMARK  209  A    between atoms: _552  and  _554
REMARK  210  A    between atoms: _554  and  _555
REMARK  211  A    between atoms: _554  and  _557
REMARK  212  A    between atoms: _557  and  _558
REMARK  213  A    between atoms: _561  and  _563
REMARK  214  A    between atoms: _563  and  _564
REMARK  215  A    between atoms: _563  and  _566
REMARK  216  A    between atoms: _566  and  _567
REMARK  217  A    between atoms: _567  and  _568
REMARK  218  A    between atoms: _568  and  _569
REMARK  219  A    between atoms: _578  and  _580
REMARK  220  A    between atoms: _580  and  _581
REMARK  221  A    between atoms: _580  and  _583
REMARK  222  A    between atoms: _583  and  _584
REMARK  223  A    between atoms: _594  and  _596
REMARK  224  A    between atoms: _596  and  _597
REMARK  225  A    between atoms: _599  and  _601
REMARK  226  A    between atoms: _601  and  _602
REMARK  227  A    between atoms: _601  and  _604
REMARK  228  A    between atoms: _604  and  _605
REMARK  229  A    between atoms: _610  and  _612
REMARK  230  A    between atoms: _612  and  _613
REMARK  231  A    between atoms: _616  and  _618
REMARK  232  A    between atoms: _618  and  _619
REMARK  233  A    between atoms: _618  and  _621
REMARK  234  A    between atoms: _621  and  _622
REMARK  235  A    between atoms: _625  and  _627
REMARK  236  A    between atoms: _627  and  _628
REMARK  237  A    between atoms: _627  and  _630
REMARK  238  A    between atoms: _630  and  _631
REMARK  239  A    between atoms: _637  and  _639
REMARK  240  A    between atoms: _639  and  _640
REMARK  241  A    between atoms: _639  and  _642
REMARK  242  A    between atoms: _642  and  _643
REMARK  243  A    between atoms: _643  and  _644
REMARK  244  A    between atoms: _647  and  _649
REMARK  245  A    between atoms: _649  and  _650
REMARK  246  A    between atoms: _649  and  _652
REMARK  247  A    between atoms: _652  and  _653
REMARK  248  A    between atoms: _653  and  _654
REMARK  249  A    between atoms: _654  and  _655
REMARK                            x       y       z     vdW  Elec       q    Type
REMARK                         _______ _______ _______ _____ _____    ______ ____
ROOT
ATOM      1  C   ILE A   3       3.091   1.063  23.636  0.00  0.00    +0.241 C 
ATOM      2  N   ASP A   4       2.109   0.517  24.377  0.00  0.00    -0.297 N 
ATOM      3  H   ASP A   4       2.240  -0.420  24.809  0.00  0.00    +0.150 HD
ATOM      4  O   ILE A   3       3.002   2.200  23.170  0.00  0.00    -0.273 OA
ENDROOT
BRANCH   2   5
ATOM      5  CA  ASP A   4       0.887   1.229  24.567  0.00  0.00    +0.160 C 
BRANCH   5   6
ATOM      6  C   ASP A   4       0.213   0.900  25.898  0.00  0.00    +0.241 C 
ATOM      7  O   ASP A   4       0.629  -0.024  26.594  0.00  0.00    -0.273 OA
ATOM      8  N   THR A   5      -0.817   1.677  26.189  0.00  0.00    -0.295 N 
ATOM      9  H   THR A   5      -0.976   2.529  25.615  0.00  0.00    +0.150 HD
BRANCH   8  10
ATOM     10  CA  THR A   5      -1.734   1.391  27.274  0.00  0.00    +0.176 C 
BRANCH  10  11
ATOM     11  C   THR A   5      -3.104   1.993  26.935  0.00  0.00    +0.243 C 
ATOM     12  N   LEU A   6      -4.118   1.726  27.757  0.00  0.00    -0.298 N 
ATOM     13  H   LEU A   6      -3.968   1.070  28.550  0.00  0.00    +0.150 HD
ATOM     14  O   THR A   5      -3.260   2.611  25.862  0.00  0.00    -0.273 OA
BRANCH  12  15
ATOM     15  CA  LEU A   6      -5.452   2.338  27.572  0.00  0.00    +0.137 C 
BRANCH  15  16
ATOM     16  C   LEU A   6      -5.540   3.614  28.355  0.00  0.00    +0.227 C 
ATOM     17  O   LEU A   6      -4.894   3.761  29.391  0.00  0.00    -0.286 OA
ENDBRANCH  15  16
BRANCH  15  18
ATOM     18  CB  LEU A   6      -6.595   1.382  28.042  0.00  0.00    +0.028 C 
BRANCH  18  19
ATOM     19  CG  LEU A   6      -6.713   0.119  27.201  0.00  0.00    +0.002 C 
ATOM     20  CD2 LEU A   6      -7.708  -0.831  27.854  0.00  0.00    +0.000 C 
ATOM     21  CD1 LEU A   6      -7.176   0.447  25.788  0.00  0.00    +0.000 C 
ENDBRANCH  18  19
ENDBRANCH  15  18
ENDBRANCH  12  15
ENDBRANCH  10  11
BRANCH  10  22
ATOM     22  CB  THR A   5      -1.160   1.935  28.587  0.00  0.00    +0.137 C 
ATOM     23  CG2 THR A   5      -1.212   3.438  28.644  0.00  0.00    +0.034 C 
BRANCH  22  24
ATOM     24  OG1 THR A   5      -1.952   1.455  29.699  0.00  0.00    -0.382 OA
ATOM     25  HG1 THR A   5      -1.931   0.465  29.715  0.00  0.00    +0.210 HD
ENDBRANCH  22  24
ENDBRANCH  10  22
ENDBRANCH   8  10
ENDBRANCH   5   6
BRANCH   5  26
ATOM     26  CB  ASP A   4      -0.050   1.101  23.323  0.00  0.00    +0.143 C 
BRANCH  26  27
ATOM     27  CG  ASP A   4      -0.345  -0.333  22.955  0.00  0.00    +0.367 C 
ATOM     28  OD2 ASP A   4      -0.632  -1.081  23.885  0.00  0.00    -0.246 OA
ATOM     29  OD1 ASP A   4      -0.326  -0.605  21.736  0.00  0.00    -0.246 OA
ENDBRANCH  26  27
ENDBRANCH   5  26
ENDBRANCH   2   5
BRANCH   1  30
ATOM     30  CA  ILE A   3       4.346   0.244  23.442  0.00  0.00    +0.149 C 
BRANCH  30  32
ATOM     31  C   VAL A   2       5.107  -0.276  21.182  0.00  0.00    +0.241 C 
ATOM     32  N   ILE A   3       4.920   0.604  22.145  0.00  0.00    -0.297 N 
ATOM     33  H   ILE A   3       5.191   1.594  21.976  0.00  0.00    +0.150 HD
ATOM     34  O   VAL A   2       4.949  -1.506  21.349  0.00  0.00    -0.273 OA
BRANCH  31  35
ATOM     35  CA  VAL A   2       5.561   0.289  19.824  0.00  0.00    +0.148 C 
BRANCH  35  37
ATOM     36  C   GLN A   1       7.558  -0.540  18.621  0.00  0.00    +0.238 C 
ATOM     37  N   VAL A   2       6.332  -0.770  19.113  0.00  0.00    -0.297 N 
ATOM     38  H   VAL A   2       5.908  -1.712  18.995  0.00  0.00    +0.150 HD
ATOM     39  O   GLN A   1       8.106   0.560  18.656  0.00  0.00    -0.274 OA
BRANCH  36  40
ATOM     40  CA  GLN A   1       8.280  -1.726  17.976  0.00  0.00    +0.145 C 
BRANCH  40  41
ATOM     41  N   GLN A   1       8.667  -2.686  18.983  0.00  0.00    -0.238 NA
ATOM     42  H   GLN A   1       7.927  -3.165  19.535  0.00  0.00    +0.142 HD
ENDBRANCH  40  41
BRANCH  40  43
ATOM     43  CB  GLN A   1       7.438  -2.391  16.871  0.00  0.00    +0.036 C 
BRANCH  43  44
ATOM     44  CG  GLN A   1       7.050  -1.405  15.770  0.00  0.00    +0.087 C 
BRANCH  44  45
ATOM     45  CD  GLN A   1       5.944  -1.933  14.932  0.00  0.00    +0.219 C 
ATOM     46  OE1 GLN A   1       4.909  -2.297  15.464  0.00  0.00    -0.275 OA
ATOM     47  NE2 GLN A   1       6.092  -1.906  13.593  0.00  0.00    -0.329 N 
ATOM     48 HE21 GLN A   1       6.990  -1.589  13.175  0.00  0.00    +0.145 HD
ATOM     49 HE22 GLN A   1       5.308  -2.202  12.977  0.00  0.00    +0.145 HD
ENDBRANCH  44  45
ENDBRANCH  43  44
ENDBRANCH  40  43
ENDBRANCH  36  40
ENDBRANCH  35  37
BRANCH  35  50
ATOM     50  CB  VAL A   2       4.311   0.798  19.054  0.00  0.00    +0.027 C 
ATOM     51  CG2 VAL A   2       3.376  -0.341  18.717  0.00  0.00    +0.002 C 
ATOM     52  CG1 VAL A   2       4.745   1.575  17.783  0.00  0.00    +0.002 C 
ENDBRANCH  35  50
ENDBRANCH  31  35
ENDBRANCH  30  32
BRANCH  30  53
ATOM     53  CB  ILE A   3       5.368   0.455  24.586  0.00  0.00    +0.027 C 
ATOM     54  CG2 ILE A   3       5.821   1.915  24.668  0.00  0.00    +0.002 C 
BRANCH  53  55
ATOM     55  CG1 ILE A   3       4.801  -0.053  25.946  0.00  0.00    +0.002 C 
ATOM     56  CD1 ILE A   3       5.909  -0.270  27.019  0.00  0.00    +0.000 C 
ENDBRANCH  53  55
ENDBRANCH  30  53
ENDBRANCH   1  30
TORSDOF 24
REMARK  Name = ../refined-set-2016/3jzj/3jzj_pocket.pdb
REMARK  249 active torsions:
REMARK  status: ('A' for Active; 'I' for Inactive)
REMARK    1  A    between atoms: _1  and  _3
REMARK    2  A    between atoms: _3  and  _4
REMARK    3  A    between atoms: _3  and  _6
REMARK    4  A    between atoms: _6  and  _7
REMARK    5  A    between atoms: _10  and  _12
REMARK    6  A    between atoms: _12  and  _13
REMARK    7  A    between atoms: _12  and  _15
REMARK    8  A    between atoms: _15  and  _16
REMARK    9  A    between atoms: _19  and  _21
REMARK   10  A    between atoms: _21  and  _22
REMARK   11  A    between atoms: _21  and  _24
REMARK   12  A    between atoms: _24  and  _25
REMARK   13  A    between atoms: _27  and  _29
REMARK   14  A    between atoms: _29  and  _30
REMARK   15  A    between atoms: _29  and  _32
REMARK   16  A    between atoms: _32  and  _33
REMARK   17  A    between atoms: _38  and  _40
REMARK   18  A    between atoms: _40  and  _41
REMARK   19  A    between atoms: _40  and  _43
REMARK   20  A    between atoms: _43  and  _44
REMARK   21  A    between atoms: _44  and  _45
REMARK   22  A    between atoms: _48  and  _50
REMARK   23  A    between atoms: _50  and  _51
REMARK   24  A    between atoms: _54  and  _56
REMARK   25  A    between atoms: _56  and  _57
REMARK   26  A    between atoms: _56  and  _59
REMARK   27  A    between atoms: _59  and  _60
REMARK   28  A    between atoms: _60  and  _61
REMARK   29  A    between atoms: _64  and  _66
REMARK   30  A    between atoms: _66  and  _67
REMARK   31  A    between atoms: _66  and  _69
REMARK   32  A    between atoms: _69  and  _70
REMARK   33  A    between atoms: _70  and  _71
REMARK   34  A    between atoms: _71  and  _72
REMARK   35  A    between atoms: _72  and  _73
REMARK   36  A    between atoms: _77  and  _79
REMARK   37  A    between atoms: _79  and  _80
REMARK   38  A    between atoms: _79  and  _82
REMARK   39  A    between atoms: _82  and  _83
REMARK   40  A    between atoms: _88  and  _89
REMARK   41  A    between atoms: _91  and  _93
REMARK   42  A    between atoms: _93  and  _94
REMARK   43  A    between atoms: _93  and  _96
REMARK   44  A    between atoms: _96  and  _97
REMARK   45  A    between atoms: _102  and  _104
REMARK   46  A    between atoms: _104  and  _105
REMARK   47  A    between atoms: _104  and  _107
REMARK   48  A    between atoms: _111  and  _112
REMARK   49  A    between atoms: _117  and  _119
REMARK   50  A    between atoms: _119  and  _120
REMARK   51  A    between atoms: _119  and  _122
REMARK   52  A    between atoms: _122  and  _123
REMARK   53  A    between atoms: _129  and  _131
REMARK   54  A    between atoms: _131  and  _132
REMARK   55  A    between atoms: _134  and  _136
REMARK   56  A    between atoms: _136  and  _137
REMARK   57  A    between atoms: _136  and  _139
REMARK   58  A    between atoms: _139  and  _140
REMARK   59  A    between atoms: _140  and  _141
REMARK   60  A    between atoms: _144  and  _146
REMARK   61  A    between atoms: _146  and  _147
REMARK   62  A    between atoms: _150  and  _152
REMARK   63  A    between atoms: _152  and  _153
REMARK   64  A    between atoms: _152  and  _155
REMARK   65  A    between atoms: _155  and  _156
REMARK   66  A    between atoms: _161  and  _163
REMARK   67  A    between atoms: _163  and  _164
REMARK   68  A    between atoms: _167  and  _169
REMARK   69  A    between atoms: _169  and  _170
REMARK   70  A    between atoms: _169  and  _172
REMARK   71  A    between atoms: _172  and  _173
REMARK   72  A    between atoms: _173  and  _174
REMARK   73  A    between atoms: _174  and  _175
REMARK   74  A    between atoms: _175  and  _176
REMARK   75  A    between atoms: _180  and  _182
REMARK   76  A    between atoms: _182  and  _183
REMARK   77  A    between atoms: _182  and  _185
REMARK   78  A    between atoms: _185  and  _186
REMARK   79  A    between atoms: _186  and  _187
REMARK   80  A    between atoms: _187  and  _188
REMARK   81  A    between atoms: _188  and  _189
REMARK   82  A    between atoms: _193  and  _195
REMARK   83  A    between atoms: _195  and  _196
REMARK   84  A    between atoms: _195  and  _198
REMARK   85  A    between atoms: _198  and  _199
REMARK   86  A    between atoms: _199  and  _200
REMARK   87  A    between atoms: _200  and  _201
REMARK   88  A    between atoms: _210  and  _212
REMARK   89  A    between atoms: _212  and  _213
REMARK   90  A    between atoms: _212  and  _215
REMARK   91  A    between atoms: _215  and  _216
REMARK   92  A    between atoms: _216  and  _217
REMARK   93  A    between atoms: _220  and  _222
REMARK   94  A    between atoms: _222  and  _223
REMARK   95  A    between atoms: _222  and  _225
REMARK   96  A    between atoms: _228  and  _230
REMARK   97  A    between atoms: _230  and  _231
REMARK   98  A    between atoms: _234  and  _236
REMARK   99  A    between atoms: _236  and  _237
REMARK  100  A    between atoms: _236  and  _239
REMARK  101  A    between atoms: _239  and  _240
REMARK  102  A    between atoms: _250  and  _252
REMARK  103  A    between atoms: _252  and  _253
REMARK  104  A    between atoms: _252  and  _255
REMARK  105  A    between atoms: _258  and  _260
REMARK  106  A    between atoms: _260  and  _261
REMARK  107  A    between atoms: _260  and  _263
REMARK  108  A    between atoms: _263  and  _264
REMARK  109  A    between atoms: _267  and  _269
REMARK  110  A    between atoms: _269  and  _270
REMARK  111  A    between atoms: _269  and  _272
REMARK  112  A    between atoms: _272  and  _273
REMARK  113  A    between atoms: _279  and  _281
REMARK  114  A    between atoms: _281  and  _282
REMARK  115  A    between atoms: _281  and  _284
REMARK  116  A    between atoms: _284  and  _285
REMARK  117  A    between atoms: _285  and  _286
REMARK  118  A    between atoms: _291  and  _293
REMARK  119  A    between atoms: _293  and  _294
REMARK  120  A    between atoms: _293  and  _296
REMARK  121  A    between atoms: _299  and  _301
REMARK  122  A    between atoms: _301  and  _302
REMARK  123  A    between atoms: _301  and  _304
REMARK  124  A    between atoms: _304  and  _305
REMARK  125  A    between atoms: _308  and  _310
REMARK  126  A    between atoms: _310  and  _311
REMARK  127  A    between atoms: _310  and  _313
REMARK  128  A    between atoms: _313  and  _314
REMARK  129  A    between atoms: _317  and  _319
REMARK  130  A    between atoms: _319  and  _320
REMARK  131  A    between atoms: _319  and  _322
REMARK  132  A    between atoms: _322  and  _323
REMARK  133  A    between atoms: _326  and  _328
REMARK  134  A    between atoms: _328  and  _329
REMARK  135  A    between atoms: _328  and  _331
REMARK  136  A    between atoms: _331  and  _332
REMARK  137  A    between atoms: _335  and  _337
REMARK  138  A    between atoms: _337  and  _338
REMARK  139  A    between atoms: _337  and  _340
REMARK  140  A    between atoms: _340  and  _341
REMARK  141  A    between atoms: _341  and  _342
REMARK  142  A    between atoms: _342  and  _343
REMARK  143  A    between atoms: _352  and  _354
REMARK  144  A    between atoms: _354  and  _355
REMARK  145  A    between atoms: _354  and  _357
REMARK  146  A    between atoms: _357  and  _358
REMARK  147  A    between atoms: _361  and  _363
REMARK  148  A    between atoms: _363  and  _364
REMARK  149  A    between atoms: _363  and  _366
REMARK  150  A    between atoms: _366  and  _367
REMARK  151  A    between atoms: _371  and  _372
REMARK  152  A    between atoms: _377  and  _379
REMARK  153  A    between atoms: _379  and  _380
REMARK  154  A    between atoms: _379  and  _382
REMARK  155  A    between atoms: _382  and  _383
REMARK  156  A    between atoms: _388  and  _389
REMARK  157  A    between atoms: _391  and  _393
REMARK  158  A    between atoms: _393  and  _394
REMARK  159  A    between atoms: _393  and  _396
REMARK  160  A    between atoms: _396  and  _397
REMARK  161  A    between atoms: _407  and  _409
REMARK  162  A    between atoms: _409  and  _410
REMARK  163  A    between atoms: _409  and  _412
REMARK  164  A    between atoms: _412  and  _413
REMARK  165  A    between atoms: _419  and  _421
REMARK  166  A    between atoms: _421  and  _422
REMARK  167  A    between atoms: _421  and  _424
REMARK  168  A    between atoms: _424  and  _425
REMARK  169  A    between atoms: _428  and  _430
REMARK  170  A    between atoms: _430  and  _431
REMARK  171  A    between atoms: _430  and  _433
REMARK  172  A    between atoms: _433  and  _434
REMARK  173  A    between atoms: _444  and  _446
REMARK  174  A    between atoms: _446  and  _447
REMARK  175  A    between atoms: _446  and  _449
REMARK  176  A    between atoms: _449  and  _450
REMARK  177  A    between atoms: _450  and  _451
REMARK  178  A    between atoms: _453  and  _455
REMARK  179  A    between atoms: _455  and  _456
REMARK  180  A    between atoms: _455  and  _458
REMARK  181  A    between atoms: _458  and  _459
REMARK  182  A    between atoms: _464  and  _466
REMARK  183  A    between atoms: _466  and  _467
REMARK  184  A    between atoms: _470  and  _471
REMARK  185  A    between atoms: _476  and  _478
REMARK  186  A    between atoms: _478  and  _479
REMARK  187  A    between atoms: _478  and  _481
REMARK  188  A    between atoms: _481  and  _482
REMARK  189  A    between atoms: _492  and  _494
REMARK  190  A    between atoms: _494  and  _495
REMARK  191  A    between atoms: _499  and  _500
REMARK  192  A    between atoms: _505  and  _507
REMARK  193  A    between atoms: _507  and  _508
REMARK  194  A    between atoms: _507  and  _510
REMARK  195  A    between atoms: _510  and  _511
REMARK  196  A    between atoms: _511  and  _512
REMARK  197  A    between atoms: _517  and  _519
REMARK  198  A    between atoms: _519  and  _520
REMARK  199  A    between atoms: _522  and  _524
REMARK  200  A    between atoms: _524  and  _525
REMARK  201  A    between atoms: _527  and  _529
REMARK  202  A    between atoms: _529  and  _530
REMARK  203  A    between atoms: _529  and  _532
REMARK  204  A    between atoms: _532  and  _533
REMARK  205  A    between atoms: _543  and  _545
REMARK  206  A    between atoms: _545  and  _546
REMARK  207  A    between atoms: _545  and  _548
REMARK  208  A    between atoms: _548  and  _549
REMARK  209  A    between atoms: _552  and  _554
REMARK  210  A    between atoms: _554  and  _555
REMARK  211  A    between atoms: _554  and  _557
REMARK  212  A    between atoms: _557  and  _558
REMARK  213  A    between atoms: _561  and  _563
REMARK  214  A    between atoms: _563  and  _564
REMARK  215  A    between atoms: _563  and  _566
REMARK  216  A    between atoms: _566  and  _567
REMARK  217  A    between atoms: _567  and  _568
REMARK  218  A    between atoms: _568  and  _569
REMARK  219  A    between atoms: _578  and  _580
REMARK  220  A    between atoms: _580  and  _581
REMARK  221  A    between atoms: _580  and  _583
REMARK  222  A    between atoms: _583  and  _584
REMARK  223  A    between atoms: _594  and  _596
REMARK  224  A    between atoms: _596  and  _597
REMARK  225  A    between atoms: _599  and  _601
REMARK  226  A    between atoms: _601  and  _602
REMARK  227  A    between atoms: _601  and  _604
REMARK  228  A    between atoms: _604  and  _605
REMARK  229  A    between atoms: _610  and  _612
REMARK  230  A    between atoms: _612  and  _613
REMARK  231  A    between atoms: _616  and  _618
REMARK  232  A    between atoms: _618  and  _619
REMARK  233  A    between atoms: _618  and  _621
REMARK  234  A    between atoms: _621  and  _622
REMARK  235  A    between atoms: _625  and  _627
REMARK  236  A    between atoms: _627  and  _628
REMARK  237  A    between atoms: _627  and  _630
REMARK  238  A    between atoms: _630  and  _631
REMARK  239  A    between atoms: _637  and  _639
REMARK  240  A    between atoms: _639  and  _640
REMARK  241  A    between atoms: _639  and  _642
REMARK  242  A    between atoms: _642  and  _643
REMARK  243  A    between atoms: _643  and  _644
REMARK  244  A    between atoms: _647  and  _649
REMARK  245  A    between atoms: _649  and  _650
REMARK  246  A    between atoms: _649  and  _652
REMARK  247  A    between atoms: _652  and  _653
REMARK  248  A    between atoms: _653  and  _654
REMARK  249  A    between atoms: _654  and  _655
REMARK                            x       y       z     vdW  Elec       q    Type
REMARK                         _______ _______ _______ _____ _____    ______ ____
ROOT
ATOM      1  NE  ARG A   1     -14.080  -3.205  21.072  0.00  0.00    -0.265 N 
ATOM      2  HE  ARG A   1     -14.730  -3.992  20.873  0.00  0.00    +0.259 HD
ATOM      3  CZ  ARG A   1     -12.891  -3.221  20.476  0.00  0.00    +0.342 C 
ATOM      4  NH2 ARG A   1     -11.949  -2.305  20.698  0.00  0.00    -0.292 N 
ATOM      5 HH21 ARG A   1     -12.126  -1.528  21.366  0.00  0.00    +0.255 HD
ATOM      6 HH22 ARG A   1     -11.036  -2.367  20.203  0.00  0.00    +0.255 HD
ATOM      7  NH1 ARG A   1     -12.638  -4.177  19.597  0.00  0.00    -0.292 N 
ATOM      8 HH11 ARG A   1     -13.361  -4.894  19.386  0.00  0.00    +0.255 HD
ATOM      9 HH12 ARG A   1     -11.716  -4.212  19.117  0.00  0.00    +0.255 HD
ENDROOT
BRANCH   1  10
ATOM     10  CD  ARG A   1     -14.548  -2.137  22.007  0.00  0.00    +0.174 C 
BRANCH  10  11
ATOM     11  CG  ARG A   1     -14.554  -2.475  23.344  0.00  0.00    +0.045 C 
BRANCH  11  12
ATOM     12  CB  ARG A   1     -14.973  -1.340  24.249  0.00  0.00    +0.029 C 
BRANCH  12  13
ATOM     13  CA  ARG A   1     -16.386  -1.421  24.754  0.00  0.00    +0.133 C 
BRANCH  13  14
ATOM     14  N   ARG A   1     -16.557  -0.315  25.741  0.00  0.00    -0.239 NA
ATOM     15  H   ARG A   1     -15.737   0.246  26.049  0.00  0.00    +0.142 HD
ENDBRANCH  13  14
BRANCH  13  16
ATOM     16  C   ARG A   1     -16.686  -2.762  25.424  0.00  0.00    +0.224 C 
ATOM     17  O   ARG A   1     -16.090  -3.085  26.457  0.00  0.00    -0.287 OA
ENDBRANCH  13  16
ENDBRANCH  12  13
ENDBRANCH  11  12
ENDBRANCH  10  11
ENDBRANCH   1  10
TORSDOF 6
REMARK  Name = ../refined-set-2016/3jzj/3jzj_pocket.pdb
REMARK  249 active torsions:
REMARK  status: ('A' for Active; 'I' for Inactive)
REMARK    1  A    between atoms: _1  and  _3
REMARK    2  A    between atoms: _3  and  _4
REMARK    3  A    between atoms: _3  and  _6
REMARK    4  A    between atoms: _6  and  _7
REMARK    5  A    between atoms: _10  and  _12
REMARK    6  A    between atoms: _12  and  _13
REMARK    7  A    between atoms: _12  and  _15
REMARK    8  A    between atoms: _15  and  _16
REMARK    9  A    between atoms: _19  and  _21
REMARK   10  A    between atoms: _21  and  _22
REMARK   11  A    between atoms: _21  and  _24
REMARK   12  A    between atoms: _24  and  _25
REMARK   13  A    between atoms: _27  and  _29
REMARK   14  A    between atoms: _29  and  _30
REMARK   15  A    between atoms: _29  and  _32
REMARK   16  A    between atoms: _32  and  _33
REMARK   17  A    between atoms: _38  and  _40
REMARK   18  A    between atoms: _40  and  _41
REMARK   19  A    between atoms: _40  and  _43
REMARK   20  A    between atoms: _43  and  _44
REMARK   21  A    between atoms: _44  and  _45
REMARK   22  A    between atoms: _48  and  _50
REMARK   23  A    between atoms: _50  and  _51
REMARK   24  A    between atoms: _54  and  _56
REMARK   25  A    between atoms: _56  and  _57
REMARK   26  A    between atoms: _56  and  _59
REMARK   27  A    between atoms: _59  and  _60
REMARK   28  A    between atoms: _60  and  _61
REMARK   29  A    between atoms: _64  and  _66
REMARK   30  A    between atoms: _66  and  _67
REMARK   31  A    between atoms: _66  and  _69
REMARK   32  A    between atoms: _69  and  _70
REMARK   33  A    between atoms: _70  and  _71
REMARK   34  A    between atoms: _71  and  _72
REMARK   35  A    between atoms: _72  and  _73
REMARK   36  A    between atoms: _77  and  _79
REMARK   37  A    between atoms: _79  and  _80
REMARK   38  A    between atoms: _79  and  _82
REMARK   39  A    between atoms: _82  and  _83
REMARK   40  A    between atoms: _88  and  _89
REMARK   41  A    between atoms: _91  and  _93
REMARK   42  A    between atoms: _93  and  _94
REMARK   43  A    between atoms: _93  and  _96
REMARK   44  A    between atoms: _96  and  _97
REMARK   45  A    between atoms: _102  and  _104
REMARK   46  A    between atoms: _104  and  _105
REMARK   47  A    between atoms: _104  and  _107
REMARK   48  A    between atoms: _111  and  _112
REMARK   49  A    between atoms: _117  and  _119
REMARK   50  A    between atoms: _119  and  _120
REMARK   51  A    between atoms: _119  and  _122
REMARK   52  A    between atoms: _122  and  _123
REMARK   53  A    between atoms: _129  and  _131
REMARK   54  A    between atoms: _131  and  _132
REMARK   55  A    between atoms: _134  and  _136
REMARK   56  A    between atoms: _136  and  _137
REMARK   57  A    between atoms: _136  and  _139
REMARK   58  A    between atoms: _139  and  _140
REMARK   59  A    between atoms: _140  and  _141
REMARK   60  A    between atoms: _144  and  _146
REMARK   61  A    between atoms: _146  and  _147
REMARK   62  A    between atoms: _150  and  _152
REMARK   63  A    between atoms: _152  and  _153
REMARK   64  A    between atoms: _152  and  _155
REMARK   65  A    between atoms: _155  and  _156
REMARK   66  A    between atoms: _161  and  _163
REMARK   67  A    between atoms: _163  and  _164
REMARK   68  A    between atoms: _167  and  _169
REMARK   69  A    between atoms: _169  and  _170
REMARK   70  A    between atoms: _169  and  _172
REMARK   71  A    between atoms: _172  and  _173
REMARK   72  A    between atoms: _173  and  _174
REMARK   73  A    between atoms: _174  and  _175
REMARK   74  A    between atoms: _175  and  _176
REMARK   75  A    between atoms: _180  and  _182
REMARK   76  A    between atoms: _182  and  _183
REMARK   77  A    between atoms: _182  and  _185
REMARK   78  A    between atoms: _185  and  _186
REMARK   79  A    between atoms: _186  and  _187
REMARK   80  A    between atoms: _187  and  _188
REMARK   81  A    between atoms: _188  and  _189
REMARK   82  A    between atoms: _193  and  _195
REMARK   83  A    between atoms: _195  and  _196
REMARK   84  A    between atoms: _195  and  _198
REMARK   85  A    between atoms: _198  and  _199
REMARK   86  A    between atoms: _199  and  _200
REMARK   87  A    between atoms: _200  and  _201
REMARK   88  A    between atoms: _210  and  _212
REMARK   89  A    between atoms: _212  and  _213
REMARK   90  A    between atoms: _212  and  _215
REMARK   91  A    between atoms: _215  and  _216
REMARK   92  A    between atoms: _216  and  _217
REMARK   93  A    between atoms: _220  and  _222
REMARK   94  A    between atoms: _222  and  _223
REMARK   95  A    between atoms: _222  and  _225
REMARK   96  A    between atoms: _228  and  _230
REMARK   97  A    between atoms: _230  and  _231
REMARK   98  A    between atoms: _234  and  _236
REMARK   99  A    between atoms: _236  and  _237
REMARK  100  A    between atoms: _236  and  _239
REMARK  101  A    between atoms: _239  and  _240
REMARK  102  A    between atoms: _250  and  _252
REMARK  103  A    between atoms: _252  and  _253
REMARK  104  A    between atoms: _252  and  _255
REMARK  105  A    between atoms: _258  and  _260
REMARK  106  A    between atoms: _260  and  _261
REMARK  107  A    between atoms: _260  and  _263
REMARK  108  A    between atoms: _263  and  _264
REMARK  109  A    between atoms: _267  and  _269
REMARK  110  A    between atoms: _269  and  _270
REMARK  111  A    between atoms: _269  and  _272
REMARK  112  A    between atoms: _272  and  _273
REMARK  113  A    between atoms: _279  and  _281
REMARK  114  A    between atoms: _281  and  _282
REMARK  115  A    between atoms: _281  and  _284
REMARK  116  A    between atoms: _284  and  _285
REMARK  117  A    between atoms: _285  and  _286
REMARK  118  A    between atoms: _291  and  _293
REMARK  119  A    between atoms: _293  and  _294
REMARK  120  A    between atoms: _293  and  _296
REMARK  121  A    between atoms: _299  and  _301
REMARK  122  A    between atoms: _301  and  _302
REMARK  123  A    between atoms: _301  and  _304
REMARK  124  A    between atoms: _304  and  _305
REMARK  125  A    between atoms: _308  and  _310
REMARK  126  A    between atoms: _310  and  _311
REMARK  127  A    between atoms: _310  and  _313
REMARK  128  A    between atoms: _313  and  _314
REMARK  129  A    between atoms: _317  and  _319
REMARK  130  A    between atoms: _319  and  _320
REMARK  131  A    between atoms: _319  and  _322
REMARK  132  A    between atoms: _322  and  _323
REMARK  133  A    between atoms: _326  and  _328
REMARK  134  A    between atoms: _328  and  _329
REMARK  135  A    between atoms: _328  and  _331
REMARK  136  A    between atoms: _331  and  _332
REMARK  137  A    between atoms: _335  and  _337
REMARK  138  A    between atoms: _337  and  _338
REMARK  139  A    between atoms: _337  and  _340
REMARK  140  A    between atoms: _340  and  _341
REMARK  141  A    between atoms: _341  and  _342
REMARK  142  A    between atoms: _342  and  _343
REMARK  143  A    between atoms: _352  and  _354
REMARK  144  A    between atoms: _354  and  _355
REMARK  145  A    between atoms: _354  and  _357
REMARK  146  A    between atoms: _357  and  _358
REMARK  147  A    between atoms: _361  and  _363
REMARK  148  A    between atoms: _363  and  _364
REMARK  149  A    between atoms: _363  and  _366
REMARK  150  A    between atoms: _366  and  _367
REMARK  151  A    between atoms: _371  and  _372
REMARK  152  A    between atoms: _377  and  _379
REMARK  153  A    between atoms: _379  and  _380
REMARK  154  A    between atoms: _379  and  _382
REMARK  155  A    between atoms: _382  and  _383
REMARK  156  A    between atoms: _388  and  _389
REMARK  157  A    between atoms: _391  and  _393
REMARK  158  A    between atoms: _393  and  _394
REMARK  159  A    between atoms: _393  and  _396
REMARK  160  A    between atoms: _396  and  _397
REMARK  161  A    between atoms: _407  and  _409
REMARK  162  A    between atoms: _409  and  _410
REMARK  163  A    between atoms: _409  and  _412
REMARK  164  A    between atoms: _412  and  _413
REMARK  165  A    between atoms: _419  and  _421
REMARK  166  A    between atoms: _421  and  _422
REMARK  167  A    between atoms: _421  and  _424
REMARK  168  A    between atoms: _424  and  _425
REMARK  169  A    between atoms: _428  and  _430
REMARK  170  A    between atoms: _430  and  _431
REMARK  171  A    between atoms: _430  and  _433
REMARK  172  A    between atoms: _433  and  _434
REMARK  173  A    between atoms: _444  and  _446
REMARK  174  A    between atoms: _446  and  _447
REMARK  175  A    between atoms: _446  and  _449
REMARK  176  A    between atoms: _449  and  _450
REMARK  177  A    between atoms: _450  and  _451
REMARK  178  A    between atoms: _453  and  _455
REMARK  179  A    between atoms: _455  and  _456
REMARK  180  A    between atoms: _455  and  _458
REMARK  181  A    between atoms: _458  and  _459
REMARK  182  A    between atoms: _464  and  _466
REMARK  183  A    between atoms: _466  and  _467
REMARK  184  A    between atoms: _470  and  _471
REMARK  185  A    between atoms: _476  and  _478
REMARK  186  A    between atoms: _478  and  _479
REMARK  187  A    between atoms: _478  and  _481
REMARK  188  A    between atoms: _481  and  _482
REMARK  189  A    between atoms: _492  and  _494
REMARK  190  A    between atoms: _494  and  _495
REMARK  191  A    between atoms: _499  and  _500
REMARK  192  A    between atoms: _505  and  _507
REMARK  193  A    between atoms: _507  and  _508
REMARK  194  A    between atoms: _507  and  _510
REMARK  195  A    between atoms: _510  and  _511
REMARK  196  A    between atoms: _511  and  _512
REMARK  197  A    between atoms: _517  and  _519
REMARK  198  A    between atoms: _519  and  _520
REMARK  199  A    between atoms: _522  and  _524
REMARK  200  A    between atoms: _524  and  _525
REMARK  201  A    between atoms: _527  and  _529
REMARK  202  A    between atoms: _529  and  _530
REMARK  203  A    between atoms: _529  and  _532
REMARK  204  A    between atoms: _532  and  _533
REMARK  205  A    between atoms: _543  and  _545
REMARK  206  A    between atoms: _545  and  _546
REMARK  207  A    between atoms: _545  and  _548
REMARK  208  A    between atoms: _548  and  _549
REMARK  209  A    between atoms: _552  and  _554
REMARK  210  A    between atoms: _554  and  _555
REMARK  211  A    between atoms: _554  and  _557
REMARK  212  A    between atoms: _557  and  _558
REMARK  213  A    between atoms: _561  and  _563
REMARK  214  A    between atoms: _563  and  _564
REMARK  215  A    between atoms: _563  and  _566
REMARK  216  A    between atoms: _566  and  _567
REMARK  217  A    between atoms: _567  and  _568
REMARK  218  A    between atoms: _568  and  _569
REMARK  219  A    between atoms: _578  and  _580
REMARK  220  A    between atoms: _580  and  _581
REMARK  221  A    between atoms: _580  and  _583
REMARK  222  A    between atoms: _583  and  _584
REMARK  223  A    between atoms: _594  and  _596
REMARK  224  A    between atoms: _596  and  _597
REMARK  225  A    between atoms: _599  and  _601
REMARK  226  A    between atoms: _601  and  _602
REMARK  227  A    between atoms: _601  and  _604
REMARK  228  A    between atoms: _604  and  _605
REMARK  229  A    between atoms: _610  and  _612
REMARK  230  A    between atoms: _612  and  _613
REMARK  231  A    between atoms: _616  and  _618
REMARK  232  A    between atoms: _618  and  _619
REMARK  233  A    between atoms: _618  and  _621
REMARK  234  A    between atoms: _621  and  _622
REMARK  235  A    between atoms: _625  and  _627
REMARK  236  A    between atoms: _627  and  _628
REMARK  237  A    between atoms: _627  and  _630
REMARK  238  A    between atoms: _630  and  _631
REMARK  239  A    between atoms: _637  and  _639
REMARK  240  A    between atoms: _639  and  _640
REMARK  241  A    between atoms: _639  and  _642
REMARK  242  A    between atoms: _642  and  _643
REMARK  243  A    between atoms: _643  and  _644
REMARK  244  A    between atoms: _647  and  _649
REMARK  245  A    between atoms: _649  and  _650
REMARK  246  A    between atoms: _649  and  _652
REMARK  247  A    between atoms: _652  and  _653
REMARK  248  A    between atoms: _653  and  _654
REMARK  249  A    between atoms: _654  and  _655
REMARK                            x       y       z     vdW  Elec       q    Type
REMARK                         _______ _______ _______ _____ _____    ______ ____
ROOT
ATOM      1  C   TYR A   4      -9.345  -4.939  27.971  0.00  0.00    +0.241 C 
ATOM      2  O   TYR A   4      -8.710  -4.474  28.942  0.00  0.00    -0.273 OA
ATOM      3  N   TRP A   5     -10.546  -4.513  27.618  0.00  0.00    -0.297 N 
ATOM      4  H   TRP A   5     -11.052  -5.023  26.866  0.00  0.00    +0.150 HD
ENDROOT
BRANCH   3   5
ATOM      5  CA  TRP A   5     -11.200  -3.351  28.241  0.00  0.00    +0.153 C 
BRANCH   5   6
ATOM      6  C   TRP A   5     -11.705  -3.708  29.648  0.00  0.00    +0.241 C 
ATOM      7  O   TRP A   5     -12.092  -2.789  30.403  0.00  0.00    -0.273 OA
ATOM      8  N   PHE A   6     -11.676  -4.980  30.033  0.00  0.00    -0.297 N 
ATOM      9  H   PHE A   6     -11.400  -5.726  29.363  0.00  0.00    +0.150 HD
BRANCH   8  10
ATOM     10  CA  PHE A   6     -12.040  -5.323  31.421  0.00  0.00    +0.153 C 
BRANCH  10  11
ATOM     11  C   PHE A   6     -10.934  -4.928  32.381  0.00  0.00    +0.241 C 
ATOM     12  O   PHE A   6     -11.200  -4.686  33.580  0.00  0.00    -0.273 OA
ATOM     13  N   LEU A   7      -9.700  -4.903  31.906  0.00  0.00    -0.298 N 
ATOM     14  H   LEU A   7      -9.536  -4.972  30.881  0.00  0.00    +0.150 HD
BRANCH  13  15
ATOM     15  CA  LEU A   7      -8.581  -4.780  32.809  0.00  0.00    +0.137 C 
BRANCH  15  16
ATOM     16  C   LEU A   7      -8.531  -3.484  33.619  0.00  0.00    +0.227 C 
ATOM     17  O   LEU A   7      -8.266  -3.549  34.796  0.00  0.00    -0.286 OA
ENDBRANCH  15  16
BRANCH  15  18
ATOM     18  CB  LEU A   7      -7.249  -5.050  32.085  0.00  0.00    +0.028 C 
BRANCH  18  19
ATOM     19  CG  LEU A   7      -7.082  -6.458  31.513  0.00  0.00    +0.002 C 
ATOM     20  CD2 LEU A   7      -7.183  -7.460  32.622  0.00  0.00    +0.000 C 
ATOM     21  CD1 LEU A   7      -5.703  -6.572  30.830  0.00  0.00    +0.000 C 
ENDBRANCH  18  19
ENDBRANCH  15  18
ENDBRANCH  13  15
ENDBRANCH  10  11
BRANCH  10  22
ATOM     22  CB  PHE A   6     -12.227  -6.867  31.492  0.00  0.00    +0.055 C 
BRANCH  22  23
ATOM     23  CG  PHE A   6     -12.580  -7.398  32.860  0.00  0.00    -0.020 A 
ATOM     24  CD2 PHE A   6     -11.760  -8.300  33.538  0.00  0.00    -0.004 A 
ATOM     25  CE2 PHE A   6     -12.196  -8.820  34.798  0.00  0.00    -0.000 A 
ATOM     26  CZ  PHE A   6     -13.399  -8.435  35.294  0.00  0.00    -0.000 A 
ATOM     27  CE1 PHE A   6     -14.223  -7.547  34.652  0.00  0.00    -0.000 A 
ATOM     28  CD1 PHE A   6     -13.831  -7.037  33.393  0.00  0.00    -0.004 A 
ENDBRANCH  22  23
ENDBRANCH  10  22
ENDBRANCH   8  10
ENDBRANCH   5   6
BRANCH   5  29
ATOM     29  CB  TRP A   5     -12.357  -2.841  27.406  0.00  0.00    +0.057 C 
BRANCH  29  30
ATOM     30  CG  TRP A   5     -11.987  -1.758  26.450  0.00  0.00    -0.002 A 
ATOM     31  CD1 TRP A   5     -12.413  -0.459  26.505  0.00  0.00    +0.068 A 
ATOM     32  NE1 TRP A   5     -11.919   0.246  25.435  0.00  0.00    -0.352 N 
ATOM     33  HE1 TRP A   5     -12.119   1.247  25.238  0.00  0.00    +0.166 HD
ATOM     34  CE2 TRP A   5     -11.124  -0.561  24.665  0.00  0.00    +0.056 A 
ATOM     35  CZ2 TRP A   5     -10.415  -0.280  23.485  0.00  0.00    +0.017 A 
ATOM     36  CH2 TRP A   5      -9.730  -1.293  22.897  0.00  0.00    +0.001 A 
ATOM     37  CZ3 TRP A   5      -9.734  -2.598  23.418  0.00  0.00    +0.000 A 
ATOM     38  CE3 TRP A   5     -10.451  -2.893  24.600  0.00  0.00    +0.001 A 
ATOM     39  CD2 TRP A   5     -11.148  -1.853  25.244  0.00  0.00    +0.013 A 
ENDBRANCH  29  30
ENDBRANCH   5  29
ENDBRANCH   3   5
BRANCH   1  40
ATOM     40  CA  TYR A   4      -8.816  -6.130  27.155  0.00  0.00    +0.153 C 
BRANCH  40  43
ATOM     41  C   PRO A   3     -10.697  -7.570  27.505  0.00  0.00    +0.241 C 
ATOM     42  O   PRO A   3     -10.572  -7.448  28.726  0.00  0.00    -0.273 OA
ATOM     43  N   TYR A   4      -9.911  -6.939  26.633  0.00  0.00    -0.297 N 
ATOM     44  H   TYR A   4     -10.074  -7.021  25.609  0.00  0.00    +0.150 HD
BRANCH  41  48
ATOM     45  C   ASP A   2     -12.604  -7.010  25.123  0.00  0.00    +0.244 C 
ATOM     46  O   ASP A   2     -12.764  -6.052  25.887  0.00  0.00    -0.273 OA
ATOM     47  N   PRO A   3     -12.089  -8.173  25.516  0.00  0.00    -0.272 N 
ATOM     48  CA  PRO A   3     -11.791  -8.420  26.929  0.00  0.00    +0.152 C 
ATOM     49  CB  PRO A   3     -11.384  -9.920  26.966  0.00  0.00    +0.031 C 
ATOM     50  CG  PRO A   3     -10.823 -10.148  25.544  0.00  0.00    +0.024 C 
ATOM     51  CD  PRO A   3     -11.745  -9.349  24.676  0.00  0.00    +0.094 C 
BRANCH  45  52
ATOM     52  CA  ASP A   2     -13.047  -6.939  23.650  0.00  0.00    +0.160 C 
BRANCH  52  54
ATOM     53  C   ASP A   1     -15.354  -7.475  23.002  0.00  0.00    +0.239 C 
ATOM     54  N   ASP A   2     -14.480  -6.709  23.667  0.00  0.00    -0.297 N 
ATOM     55  H   ASP A   2     -14.846  -5.910  24.223  0.00  0.00    +0.150 HD
ATOM     56  O   ASP A   1     -15.006  -8.461  22.375  0.00  0.00    -0.274 OA
BRANCH  53  57
ATOM     57  CA  ASP A   1     -16.816  -7.158  23.069  0.00  0.00    +0.156 C 
BRANCH  57  58
ATOM     58  N   ASP A   1     -17.145  -5.971  23.801  0.00  0.00    -0.238 NA
ATOM     59  H   ASP A   1     -16.865  -5.054  23.399  0.00  0.00    +0.142 HD
ENDBRANCH  57  58
BRANCH  57  60
ATOM     60  CB  ASP A   1     -17.395  -7.112  21.642  0.00  0.00    +0.140 C 
BRANCH  60  61
ATOM     61  CG  ASP A   1     -16.698  -6.097  20.752  0.00  0.00    +0.367 C 
ATOM     62  OD2 ASP A   1     -16.017  -5.158  21.298  0.00  0.00    -0.246 OA
ATOM     63  OD1 ASP A   1     -16.859  -6.233  19.504  0.00  0.00    -0.246 OA
ENDBRANCH  60  61
ENDBRANCH  57  60
ENDBRANCH  53  57
ENDBRANCH  52  54
BRANCH  52  64
ATOM     64  CB  ASP A   2     -12.338  -5.823  22.859  0.00  0.00    +0.143 C 
BRANCH  64  65
ATOM     65  CG  ASP A   2     -10.872  -5.979  22.803  0.00  0.00    +0.367 C 
ATOM     66  OD2 ASP A   2     -10.225  -6.392  23.748  0.00  0.00    -0.246 OA
ATOM     67  OD1 ASP A   2     -10.311  -5.622  21.701  0.00  0.00    -0.246 OA
ENDBRANCH  64  65
ENDBRANCH  52  64
ENDBRANCH  45  52
ENDBRANCH  41  48
ENDBRANCH  40  43
BRANCH  40  68
ATOM     68  CB  TYR A   4      -8.003  -5.620  25.984  0.00  0.00    +0.055 C 
BRANCH  68  69
ATOM     69  CG  TYR A   4      -6.633  -5.018  26.300  0.00  0.00    -0.020 A 
ATOM     70  CD2 TYR A   4      -5.668  -5.772  27.015  0.00  0.00    -0.001 A 
ATOM     71  CE2 TYR A   4      -4.394  -5.275  27.208  0.00  0.00    +0.036 A 
ATOM     72  CZ  TYR A   4      -4.104  -4.017  26.752  0.00  0.00    +0.134 A 
ATOM     73  CE1 TYR A   4      -4.993  -3.234  26.071  0.00  0.00    +0.036 A 
ATOM     74  CD1 TYR A   4      -6.290  -3.733  25.829  0.00  0.00    -0.001 A 
BRANCH  72  75
ATOM     75  OH  TYR A   4      -2.816  -3.536  26.972  0.00  0.00    -0.506 OA
ATOM     76  HH  TYR A   4      -2.294  -4.211  27.474  0.00  0.00    +0.292 HD
ENDBRANCH  72  75
ENDBRANCH  68  69
ENDBRANCH  40  68
ENDBRANCH   1  40
TORSDOF 26
REMARK  Name = ../refined-set-2016/3jzj/3jzj_pocket.pdb
REMARK  249 active torsions:
REMARK  status: ('A' for Active; 'I' for Inactive)
REMARK    1  A    between atoms: _1  and  _3
REMARK    2  A    between atoms: _3  and  _4
REMARK    3  A    between atoms: _3  and  _6
REMARK    4  A    between atoms: _6  and  _7
REMARK    5  A    between atoms: _10  and  _12
REMARK    6  A    between atoms: _12  and  _13
REMARK    7  A    between atoms: _12  and  _15
REMARK    8  A    between atoms: _15  and  _16
REMARK    9  A    between atoms: _19  and  _21
REMARK   10  A    between atoms: _21  and  _22
REMARK   11  A    between atoms: _21  and  _24
REMARK   12  A    between atoms: _24  and  _25
REMARK   13  A    between atoms: _27  and  _29
REMARK   14  A    between atoms: _29  and  _30
REMARK   15  A    between atoms: _29  and  _32
REMARK   16  A    between atoms: _32  and  _33
REMARK   17  A    between atoms: _38  and  _40
REMARK   18  A    between atoms: _40  and  _41
REMARK   19  A    between atoms: _40  and  _43
REMARK   20  A    between atoms: _43  and  _44
REMARK   21  A    between atoms: _44  and  _45
REMARK   22  A    between atoms: _48  and  _50
REMARK   23  A    between atoms: _50  and  _51
REMARK   24  A    between atoms: _54  and  _56
REMARK   25  A    between atoms: _56  and  _57
REMARK   26  A    between atoms: _56  and  _59
REMARK   27  A    between atoms: _59  and  _60
REMARK   28  A    between atoms: _60  and  _61
REMARK   29  A    between atoms: _64  and  _66
REMARK   30  A    between atoms: _66  and  _67
REMARK   31  A    between atoms: _66  and  _69
REMARK   32  A    between atoms: _69  and  _70
REMARK   33  A    between atoms: _70  and  _71
REMARK   34  A    between atoms: _71  and  _72
REMARK   35  A    between atoms: _72  and  _73
REMARK   36  A    between atoms: _77  and  _79
REMARK   37  A    between atoms: _79  and  _80
REMARK   38  A    between atoms: _79  and  _82
REMARK   39  A    between atoms: _82  and  _83
REMARK   40  A    between atoms: _88  and  _89
REMARK   41  A    between atoms: _91  and  _93
REMARK   42  A    between atoms: _93  and  _94
REMARK   43  A    between atoms: _93  and  _96
REMARK   44  A    between atoms: _96  and  _97
REMARK   45  A    between atoms: _102  and  _104
REMARK   46  A    between atoms: _104  and  _105
REMARK   47  A    between atoms: _104  and  _107
REMARK   48  A    between atoms: _111  and  _112
REMARK   49  A    between atoms: _117  and  _119
REMARK   50  A    between atoms: _119  and  _120
REMARK   51  A    between atoms: _119  and  _122
REMARK   52  A    between atoms: _122  and  _123
REMARK   53  A    between atoms: _129  and  _131
REMARK   54  A    between atoms: _131  and  _132
REMARK   55  A    between atoms: _134  and  _136
REMARK   56  A    between atoms: _136  and  _137
REMARK   57  A    between atoms: _136  and  _139
REMARK   58  A    between atoms: _139  and  _140
REMARK   59  A    between atoms: _140  and  _141
REMARK   60  A    between atoms: _144  and  _146
REMARK   61  A    between atoms: _146  and  _147
REMARK   62  A    between atoms: _150  and  _152
REMARK   63  A    between atoms: _152  and  _153
REMARK   64  A    between atoms: _152  and  _155
REMARK   65  A    between atoms: _155  and  _156
REMARK   66  A    between atoms: _161  and  _163
REMARK   67  A    between atoms: _163  and  _164
REMARK   68  A    between atoms: _167  and  _169
REMARK   69  A    between atoms: _169  and  _170
REMARK   70  A    between atoms: _169  and  _172
REMARK   71  A    between atoms: _172  and  _173
REMARK   72  A    between atoms: _173  and  _174
REMARK   73  A    between atoms: _174  and  _175
REMARK   74  A    between atoms: _175  and  _176
REMARK   75  A    between atoms: _180  and  _182
REMARK   76  A    between atoms: _182  and  _183
REMARK   77  A    between atoms: _182  and  _185
REMARK   78  A    between atoms: _185  and  _186
REMARK   79  A    between atoms: _186  and  _187
REMARK   80  A    between atoms: _187  and  _188
REMARK   81  A    between atoms: _188  and  _189
REMARK   82  A    between atoms: _193  and  _195
REMARK   83  A    between atoms: _195  and  _196
REMARK   84  A    between atoms: _195  and  _198
REMARK   85  A    between atoms: _198  and  _199
REMARK   86  A    between atoms: _199  and  _200
REMARK   87  A    between atoms: _200  and  _201
REMARK   88  A    between atoms: _210  and  _212
REMARK   89  A    between atoms: _212  and  _213
REMARK   90  A    between atoms: _212  and  _215
REMARK   91  A    between atoms: _215  and  _216
REMARK   92  A    between atoms: _216  and  _217
REMARK   93  A    between atoms: _220  and  _222
REMARK   94  A    between atoms: _222  and  _223
REMARK   95  A    between atoms: _222  and  _225
REMARK   96  A    between atoms: _228  and  _230
REMARK   97  A    between atoms: _230  and  _231
REMARK   98  A    between atoms: _234  and  _236
REMARK   99  A    between atoms: _236  and  _237
REMARK  100  A    between atoms: _236  and  _239
REMARK  101  A    between atoms: _239  and  _240
REMARK  102  A    between atoms: _250  and  _252
REMARK  103  A    between atoms: _252  and  _253
REMARK  104  A    between atoms: _252  and  _255
REMARK  105  A    between atoms: _258  and  _260
REMARK  106  A    between atoms: _260  and  _261
REMARK  107  A    between atoms: _260  and  _263
REMARK  108  A    between atoms: _263  and  _264
REMARK  109  A    between atoms: _267  and  _269
REMARK  110  A    between atoms: _269  and  _270
REMARK  111  A    between atoms: _269  and  _272
REMARK  112  A    between atoms: _272  and  _273
REMARK  113  A    between atoms: _279  and  _281
REMARK  114  A    between atoms: _281  and  _282
REMARK  115  A    between atoms: _281  and  _284
REMARK  116  A    between atoms: _284  and  _285
REMARK  117  A    between atoms: _285  and  _286
REMARK  118  A    between atoms: _291  and  _293
REMARK  119  A    between atoms: _293  and  _294
REMARK  120  A    between atoms: _293  and  _296
REMARK  121  A    between atoms: _299  and  _301
REMARK  122  A    between atoms: _301  and  _302
REMARK  123  A    between atoms: _301  and  _304
REMARK  124  A    between atoms: _304  and  _305
REMARK  125  A    between atoms: _308  and  _310
REMARK  126  A    between atoms: _310  and  _311
REMARK  127  A    between atoms: _310  and  _313
REMARK  128  A    between atoms: _313  and  _314
REMARK  129  A    between atoms: _317  and  _319
REMARK  130  A    between atoms: _319  and  _320
REMARK  131  A    between atoms: _319  and  _322
REMARK  132  A    between atoms: _322  and  _323
REMARK  133  A    between atoms: _326  and  _328
REMARK  134  A    between atoms: _328  and  _329
REMARK  135  A    between atoms: _328  and  _331
REMARK  136  A    between atoms: _331  and  _332
REMARK  137  A    between atoms: _335  and  _337
REMARK  138  A    between atoms: _337  and  _338
REMARK  139  A    between atoms: _337  and  _340
REMARK  140  A    between atoms: _340  and  _341
REMARK  141  A    between atoms: _341  and  _342
REMARK  142  A    between atoms: _342  and  _343
REMARK  143  A    between atoms: _352  and  _354
REMARK  144  A    between atoms: _354  and  _355
REMARK  145  A    between atoms: _354  and  _357
REMARK  146  A    between atoms: _357  and  _358
REMARK  147  A    between atoms: _361  and  _363
REMARK  148  A    between atoms: _363  and  _364
REMARK  149  A    between atoms: _363  and  _366
REMARK  150  A    between atoms: _366  and  _367
REMARK  151  A    between atoms: _371  and  _372
REMARK  152  A    between atoms: _377  and  _379
REMARK  153  A    between atoms: _379  and  _380
REMARK  154  A    between atoms: _379  and  _382
REMARK  155  A    between atoms: _382  and  _383
REMARK  156  A    between atoms: _388  and  _389
REMARK  157  A    between atoms: _391  and  _393
REMARK  158  A    between atoms: _393  and  _394
REMARK  159  A    between atoms: _393  and  _396
REMARK  160  A    between atoms: _396  and  _397
REMARK  161  A    between atoms: _407  and  _409
REMARK  162  A    between atoms: _409  and  _410
REMARK  163  A    between atoms: _409  and  _412
REMARK  164  A    between atoms: _412  and  _413
REMARK  165  A    between atoms: _419  and  _421
REMARK  166  A    between atoms: _421  and  _422
REMARK  167  A    between atoms: _421  and  _424
REMARK  168  A    between atoms: _424  and  _425
REMARK  169  A    between atoms: _428  and  _430
REMARK  170  A    between atoms: _430  and  _431
REMARK  171  A    between atoms: _430  and  _433
REMARK  172  A    between atoms: _433  and  _434
REMARK  173  A    between atoms: _444  and  _446
REMARK  174  A    between atoms: _446  and  _447
REMARK  175  A    between atoms: _446  and  _449
REMARK  176  A    between atoms: _449  and  _450
REMARK  177  A    between atoms: _450  and  _451
REMARK  178  A    between atoms: _453  and  _455
REMARK  179  A    between atoms: _455  and  _456
REMARK  180  A    between atoms: _455  and  _458
REMARK  181  A    between atoms: _458  and  _459
REMARK  182  A    between atoms: _464  and  _466
REMARK  183  A    between atoms: _466  and  _467
REMARK  184  A    between atoms: _470  and  _471
REMARK  185  A    between atoms: _476  and  _478
REMARK  186  A    between atoms: _478  and  _479
REMARK  187  A    between atoms: _478  and  _481
REMARK  188  A    between atoms: _481  and  _482
REMARK  189  A    between atoms: _492  and  _494
REMARK  190  A    between atoms: _494  and  _495
REMARK  191  A    between atoms: _499  and  _500
REMARK  192  A    between atoms: _505  and  _507
REMARK  193  A    between atoms: _507  and  _508
REMARK  194  A    between atoms: _507  and  _510
REMARK  195  A    between atoms: _510  and  _511
REMARK  196  A    between atoms: _511  and  _512
REMARK  197  A    between atoms: _517  and  _519
REMARK  198  A    between atoms: _519  and  _520
REMARK  199  A    between atoms: _522  and  _524
REMARK  200  A    between atoms: _524  and  _525
REMARK  201  A    between atoms: _527  and  _529
REMARK  202  A    between atoms: _529  and  _530
REMARK  203  A    between atoms: _529  and  _532
REMARK  204  A    between atoms: _532  and  _533
REMARK  205  A    between atoms: _543  and  _545
REMARK  206  A    between atoms: _545  and  _546
REMARK  207  A    between atoms: _545  and  _548
REMARK  208  A    between atoms: _548  and  _549
REMARK  209  A    between atoms: _552  and  _554
REMARK  210  A    between atoms: _554  and  _555
REMARK  211  A    between atoms: _554  and  _557
REMARK  212  A    between atoms: _557  and  _558
REMARK  213  A    between atoms: _561  and  _563
REMARK  214  A    between atoms: _563  and  _564
REMARK  215  A    between atoms: _563  and  _566
REMARK  216  A    between atoms: _566  and  _567
REMARK  217  A    between atoms: _567  and  _568
REMARK  218  A    between atoms: _568  and  _569
REMARK  219  A    between atoms: _578  and  _580
REMARK  220  A    between atoms: _580  and  _581
REMARK  221  A    between atoms: _580  and  _583
REMARK  222  A    between atoms: _583  and  _584
REMARK  223  A    between atoms: _594  and  _596
REMARK  224  A    between atoms: _596  and  _597
REMARK  225  A    between atoms: _599  and  _601
REMARK  226  A    between atoms: _601  and  _602
REMARK  227  A    between atoms: _601  and  _604
REMARK  228  A    between atoms: _604  and  _605
REMARK  229  A    between atoms: _610  and  _612
REMARK  230  A    between atoms: _612  and  _613
REMARK  231  A    between atoms: _616  and  _618
REMARK  232  A    between atoms: _618  and  _619
REMARK  233  A    between atoms: _618  and  _621
REMARK  234  A    between atoms: _621  and  _622
REMARK  235  A    between atoms: _625  and  _627
REMARK  236  A    between atoms: _627  and  _628
REMARK  237  A    between atoms: _627  and  _630
REMARK  238  A    between atoms: _630  and  _631
REMARK  239  A    between atoms: _637  and  _639
REMARK  240  A    between atoms: _639  and  _640
REMARK  241  A    between atoms: _639  and  _642
REMARK  242  A    between atoms: _642  and  _643
REMARK  243  A    between atoms: _643  and  _644
REMARK  244  A    between atoms: _647  and  _649
REMARK  245  A    between atoms: _649  and  _650
REMARK  246  A    between atoms: _649  and  _652
REMARK  247  A    between atoms: _652  and  _653
REMARK  248  A    between atoms: _653  and  _654
REMARK  249  A    between atoms: _654  and  _655
REMARK                            x       y       z     vdW  Elec       q    Type
REMARK                         _______ _______ _______ _____ _____    ______ ____
ROOT
ATOM      1  CG  TRP A   1     -12.295  -0.613  15.857  0.00  0.00    -0.002 A 
ATOM      2  CD2 TRP A   1     -11.313   0.236  16.498  0.00  0.00    +0.013 A 
ATOM      3  CE3 TRP A   1     -10.822   0.338  17.821  0.00  0.00    +0.001 A 
ATOM      4  CZ3 TRP A   1      -9.873   1.336  18.083  0.00  0.00    +0.000 A 
ATOM      5  CH2 TRP A   1      -9.396   2.160  17.062  0.00  0.00    +0.001 A 
ATOM      6  CZ2 TRP A   1      -9.866   2.106  15.789  0.00  0.00    +0.017 A 
ATOM      7  CE2 TRP A   1     -10.809   1.120  15.498  0.00  0.00    +0.056 A 
ATOM      8  NE1 TRP A   1     -11.458   0.830  14.321  0.00  0.00    -0.352 N 
ATOM      9  HE1 TRP A   1     -11.323   1.328  13.418  0.00  0.00    +0.166 HD
ATOM     10  CD1 TRP A   1     -12.331  -0.245  14.535  0.00  0.00    +0.068 A 
ENDROOT
BRANCH   1  11
ATOM     11  CB  TRP A   1     -13.075  -1.715  16.493  0.00  0.00    +0.053 C 
BRANCH  11  12
ATOM     12  CA  TRP A   1     -14.224  -1.114  17.351  0.00  0.00    +0.137 C 
BRANCH  12  13
ATOM     13  N   TRP A   1     -15.198  -2.153  17.751  0.00  0.00    -0.239 NA
ATOM     14  H   TRP A   1     -15.100  -3.123  17.388  0.00  0.00    +0.142 HD
ENDBRANCH  12  13
BRANCH  12  15
ATOM     15  C   TRP A   1     -14.963  -0.054  16.549  0.00  0.00    +0.224 C 
ATOM     16  O   TRP A   1     -14.941   1.148  16.854  0.00  0.00    -0.287 OA
ENDBRANCH  12  15
ENDBRANCH  11  12
ENDBRANCH   1  11
TORSDOF 4
REMARK  Name = ../refined-set-2016/3jzj/3jzj_pocket.pdb
REMARK  249 active torsions:
REMARK  status: ('A' for Active; 'I' for Inactive)
REMARK    1  A    between atoms: _1  and  _3
REMARK    2  A    between atoms: _3  and  _4
REMARK    3  A    between atoms: _3  and  _6
REMARK    4  A    between atoms: _6  and  _7
REMARK    5  A    between atoms: _10  and  _12
REMARK    6  A    between atoms: _12  and  _13
REMARK    7  A    between atoms: _12  and  _15
REMARK    8  A    between atoms: _15  and  _16
REMARK    9  A    between atoms: _19  and  _21
REMARK   10  A    between atoms: _21  and  _22
REMARK   11  A    between atoms: _21  and  _24
REMARK   12  A    between atoms: _24  and  _25
REMARK   13  A    between atoms: _27  and  _29
REMARK   14  A    between atoms: _29  and  _30
REMARK   15  A    between atoms: _29  and  _32
REMARK   16  A    between atoms: _32  and  _33
REMARK   17  A    between atoms: _38  and  _40
REMARK   18  A    between atoms: _40  and  _41
REMARK   19  A    between atoms: _40  and  _43
REMARK   20  A    between atoms: _43  and  _44
REMARK   21  A    between atoms: _44  and  _45
REMARK   22  A    between atoms: _48  and  _50
REMARK   23  A    between atoms: _50  and  _51
REMARK   24  A    between atoms: _54  and  _56
REMARK   25  A    between atoms: _56  and  _57
REMARK   26  A    between atoms: _56  and  _59
REMARK   27  A    between atoms: _59  and  _60
REMARK   28  A    between atoms: _60  and  _61
REMARK   29  A    between atoms: _64  and  _66
REMARK   30  A    between atoms: _66  and  _67
REMARK   31  A    between atoms: _66  and  _69
REMARK   32  A    between atoms: _69  and  _70
REMARK   33  A    between atoms: _70  and  _71
REMARK   34  A    between atoms: _71  and  _72
REMARK   35  A    between atoms: _72  and  _73
REMARK   36  A    between atoms: _77  and  _79
REMARK   37  A    between atoms: _79  and  _80
REMARK   38  A    between atoms: _79  and  _82
REMARK   39  A    between atoms: _82  and  _83
REMARK   40  A    between atoms: _88  and  _89
REMARK   41  A    between atoms: _91  and  _93
REMARK   42  A    between atoms: _93  and  _94
REMARK   43  A    between atoms: _93  and  _96
REMARK   44  A    between atoms: _96  and  _97
REMARK   45  A    between atoms: _102  and  _104
REMARK   46  A    between atoms: _104  and  _105
REMARK   47  A    between atoms: _104  and  _107
REMARK   48  A    between atoms: _111  and  _112
REMARK   49  A    between atoms: _117  and  _119
REMARK   50  A    between atoms: _119  and  _120
REMARK   51  A    between atoms: _119  and  _122
REMARK   52  A    between atoms: _122  and  _123
REMARK   53  A    between atoms: _129  and  _131
REMARK   54  A    between atoms: _131  and  _132
REMARK   55  A    between atoms: _134  and  _136
REMARK   56  A    between atoms: _136  and  _137
REMARK   57  A    between atoms: _136  and  _139
REMARK   58  A    between atoms: _139  and  _140
REMARK   59  A    between atoms: _140  and  _141
REMARK   60  A    between atoms: _144  and  _146
REMARK   61  A    between atoms: _146  and  _147
REMARK   62  A    between atoms: _150  and  _152
REMARK   63  A    between atoms: _152  and  _153
REMARK   64  A    between atoms: _152  and  _155
REMARK   65  A    between atoms: _155  and  _156
REMARK   66  A    between atoms: _161  and  _163
REMARK   67  A    between atoms: _163  and  _164
REMARK   68  A    between atoms: _167  and  _169
REMARK   69  A    between atoms: _169  and  _170
REMARK   70  A    between atoms: _169  and  _172
REMARK   71  A    between atoms: _172  and  _173
REMARK   72  A    between atoms: _173  and  _174
REMARK   73  A    between atoms: _174  and  _175
REMARK   74  A    between atoms: _175  and  _176
REMARK   75  A    between atoms: _180  and  _182
REMARK   76  A    between atoms: _182  and  _183
REMARK   77  A    between atoms: _182  and  _185
REMARK   78  A    between atoms: _185  and  _186
REMARK   79  A    between atoms: _186  and  _187
REMARK   80  A    between atoms: _187  and  _188
REMARK   81  A    between atoms: _188  and  _189
REMARK   82  A    between atoms: _193  and  _195
REMARK   83  A    between atoms: _195  and  _196
REMARK   84  A    between atoms: _195  and  _198
REMARK   85  A    between atoms: _198  and  _199
REMARK   86  A    between atoms: _199  and  _200
REMARK   87  A    between atoms: _200  and  _201
REMARK   88  A    between atoms: _210  and  _212
REMARK   89  A    between atoms: _212  and  _213
REMARK   90  A    between atoms: _212  and  _215
REMARK   91  A    between atoms: _215  and  _216
REMARK   92  A    between atoms: _216  and  _217
REMARK   93  A    between atoms: _220  and  _222
REMARK   94  A    between atoms: _222  and  _223
REMARK   95  A    between atoms: _222  and  _225
REMARK   96  A    between atoms: _228  and  _230
REMARK   97  A    between atoms: _230  and  _231
REMARK   98  A    between atoms: _234  and  _236
REMARK   99  A    between atoms: _236  and  _237
REMARK  100  A    between atoms: _236  and  _239
REMARK  101  A    between atoms: _239  and  _240
REMARK  102  A    between atoms: _250  and  _252
REMARK  103  A    between atoms: _252  and  _253
REMARK  104  A    between atoms: _252  and  _255
REMARK  105  A    between atoms: _258  and  _260
REMARK  106  A    between atoms: _260  and  _261
REMARK  107  A    between atoms: _260  and  _263
REMARK  108  A    between atoms: _263  and  _264
REMARK  109  A    between atoms: _267  and  _269
REMARK  110  A    between atoms: _269  and  _270
REMARK  111  A    between atoms: _269  and  _272
REMARK  112  A    between atoms: _272  and  _273
REMARK  113  A    between atoms: _279  and  _281
REMARK  114  A    between atoms: _281  and  _282
REMARK  115  A    between atoms: _281  and  _284
REMARK  116  A    between atoms: _284  and  _285
REMARK  117  A    between atoms: _285  and  _286
REMARK  118  A    between atoms: _291  and  _293
REMARK  119  A    between atoms: _293  and  _294
REMARK  120  A    between atoms: _293  and  _296
REMARK  121  A    between atoms: _299  and  _301
REMARK  122  A    between atoms: _301  and  _302
REMARK  123  A    between atoms: _301  and  _304
REMARK  124  A    between atoms: _304  and  _305
REMARK  125  A    between atoms: _308  and  _310
REMARK  126  A    between atoms: _310  and  _311
REMARK  127  A    between atoms: _310  and  _313
REMARK  128  A    between atoms: _313  and  _314
REMARK  129  A    between atoms: _317  and  _319
REMARK  130  A    between atoms: _319  and  _320
REMARK  131  A    between atoms: _319  and  _322
REMARK  132  A    between atoms: _322  and  _323
REMARK  133  A    between atoms: _326  and  _328
REMARK  134  A    between atoms: _328  and  _329
REMARK  135  A    between atoms: _328  and  _331
REMARK  136  A    between atoms: _331  and  _332
REMARK  137  A    between atoms: _335  and  _337
REMARK  138  A    between atoms: _337  and  _338
REMARK  139  A    between atoms: _337  and  _340
REMARK  140  A    between atoms: _340  and  _341
REMARK  141  A    between atoms: _341  and  _342
REMARK  142  A    between atoms: _342  and  _343
REMARK  143  A    between atoms: _352  and  _354
REMARK  144  A    between atoms: _354  and  _355
REMARK  145  A    between atoms: _354  and  _357
REMARK  146  A    between atoms: _357  and  _358
REMARK  147  A    between atoms: _361  and  _363
REMARK  148  A    between atoms: _363  and  _364
REMARK  149  A    between atoms: _363  and  _366
REMARK  150  A    between atoms: _366  and  _367
REMARK  151  A    between atoms: _371  and  _372
REMARK  152  A    between atoms: _377  and  _379
REMARK  153  A    between atoms: _379  and  _380
REMARK  154  A    between atoms: _379  and  _382
REMARK  155  A    between atoms: _382  and  _383
REMARK  156  A    between atoms: _388  and  _389
REMARK  157  A    between atoms: _391  and  _393
REMARK  158  A    between atoms: _393  and  _394
REMARK  159  A    between atoms: _393  and  _396
REMARK  160  A    between atoms: _396  and  _397
REMARK  161  A    between atoms: _407  and  _409
REMARK  162  A    between atoms: _409  and  _410
REMARK  163  A    between atoms: _409  and  _412
REMARK  164  A    between atoms: _412  and  _413
REMARK  165  A    between atoms: _419  and  _421
REMARK  166  A    between atoms: _421  and  _422
REMARK  167  A    between atoms: _421  and  _424
REMARK  168  A    between atoms: _424  and  _425
REMARK  169  A    between atoms: _428  and  _430
REMARK  170  A    between atoms: _430  and  _431
REMARK  171  A    between atoms: _430  and  _433
REMARK  172  A    between atoms: _433  and  _434
REMARK  173  A    between atoms: _444  and  _446
REMARK  174  A    between atoms: _446  and  _447
REMARK  175  A    between atoms: _446  and  _449
REMARK  176  A    between atoms: _449  and  _450
REMARK  177  A    between atoms: _450  and  _451
REMARK  178  A    between atoms: _453  and  _455
REMARK  179  A    between atoms: _455  and  _456
REMARK  180  A    between atoms: _455  and  _458
REMARK  181  A    between atoms: _458  and  _459
REMARK  182  A    between atoms: _464  and  _466
REMARK  183  A    between atoms: _466  and  _467
REMARK  184  A    between atoms: _470  and  _471
REMARK  185  A    between atoms: _476  and  _478
REMARK  186  A    between atoms: _478  and  _479
REMARK  187  A    between atoms: _478  and  _481
REMARK  188  A    between atoms: _481  and  _482
REMARK  189  A    between atoms: _492  and  _494
REMARK  190  A    between atoms: _494  and  _495
REMARK  191  A    between atoms: _499  and  _500
REMARK  192  A    between atoms: _505  and  _507
REMARK  193  A    between atoms: _507  and  _508
REMARK  194  A    between atoms: _507  and  _510
REMARK  195  A    between atoms: _510  and  _511
REMARK  196  A    between atoms: _511  and  _512
REMARK  197  A    between atoms: _517  and  _519
REMARK  198  A    between atoms: _519  and  _520
REMARK  199  A    between atoms: _522  and  _524
REMARK  200  A    between atoms: _524  and  _525
REMARK  201  A    between atoms: _527  and  _529
REMARK  202  A    between atoms: _529  and  _530
REMARK  203  A    between atoms: _529  and  _532
REMARK  204  A    between atoms: _532  and  _533
REMARK  205  A    between atoms: _543  and  _545
REMARK  206  A    between atoms: _545  and  _546
REMARK  207  A    between atoms: _545  and  _548
REMARK  208  A    between atoms: _548  and  _549
REMARK  209  A    between atoms: _552  and  _554
REMARK  210  A    between atoms: _554  and  _555
REMARK  211  A    between atoms: _554  and  _557
REMARK  212  A    between atoms: _557  and  _558
REMARK  213  A    between atoms: _561  and  _563
REMARK  214  A    between atoms: _563  and  _564
REMARK  215  A    between atoms: _563  and  _566
REMARK  216  A    between atoms: _566  and  _567
REMARK  217  A    between atoms: _567  and  _568
REMARK  218  A    between atoms: _568  and  _569
REMARK  219  A    between atoms: _578  and  _580
REMARK  220  A    between atoms: _580  and  _581
REMARK  221  A    between atoms: _580  and  _583
REMARK  222  A    between atoms: _583  and  _584
REMARK  223  A    between atoms: _594  and  _596
REMARK  224  A    between atoms: _596  and  _597
REMARK  225  A    between atoms: _599  and  _601
REMARK  226  A    between atoms: _601  and  _602
REMARK  227  A    between atoms: _601  and  _604
REMARK  228  A    between atoms: _604  and  _605
REMARK  229  A    between atoms: _610  and  _612
REMARK  230  A    between atoms: _612  and  _613
REMARK  231  A    between atoms: _616  and  _618
REMARK  232  A    between atoms: _618  and  _619
REMARK  233  A    between atoms: _618  and  _621
REMARK  234  A    between atoms: _621  and  _622
REMARK  235  A    between atoms: _625  and  _627
REMARK  236  A    between atoms: _627  and  _628
REMARK  237  A    between atoms: _627  and  _630
REMARK  238  A    between atoms: _630  and  _631
REMARK  239  A    between atoms: _637  and  _639
REMARK  240  A    between atoms: _639  and  _640
REMARK  241  A    between atoms: _639  and  _642
REMARK  242  A    between atoms: _642  and  _643
REMARK  243  A    between atoms: _643  and  _644
REMARK  244  A    between atoms: _647  and  _649
REMARK  245  A    between atoms: _649  and  _650
REMARK  246  A    between atoms: _649  and  _652
REMARK  247  A    between atoms: _652  and  _653
REMARK  248  A    between atoms: _653  and  _654
REMARK  249  A    between atoms: _654  and  _655
REMARK                            x       y       z     vdW  Elec       q    Type
REMARK                         _______ _______ _______ _____ _____    ______ ____
ROOT
ATOM      1  CA  MET A   1     -16.950   2.790  19.623  0.00  0.00    +0.134 C 
ENDROOT
BRANCH   1   2
ATOM      2  N   MET A   1     -17.594   1.852  18.688  0.00  0.00    -0.239 NA
ATOM      3  H   MET A   1     -17.150   0.930  18.504  0.00  0.00    +0.142 HD
ENDBRANCH   1   2
BRANCH   1   4
ATOM      4  C   MET A   1     -16.493   4.068  18.910  0.00  0.00    +0.224 C 
ATOM      5  O   MET A   1     -16.790   5.205  19.330  0.00  0.00    -0.287 OA
ENDBRANCH   1   4
BRANCH   1   6
ATOM      6  CB  MET A   1     -15.779   2.122  20.293  0.00  0.00    +0.037 C 
BRANCH   6   7
ATOM      7  CG  MET A   1     -15.032   3.033  21.215  0.00  0.00    +0.059 C 
BRANCH   7   8
ATOM      8  SD  MET A   1     -13.771   2.154  22.157  0.00  0.00    -0.139 S 
ATOM      9  CE  MET A   1     -12.881   1.371  20.778  0.00  0.00    +0.069 C 
ENDBRANCH   7   8
ENDBRANCH   6   7
ENDBRANCH   1   6
TORSDOF 5
REMARK  Name = ../refined-set-2016/3jzj/3jzj_pocket.pdb
REMARK  249 active torsions:
REMARK  status: ('A' for Active; 'I' for Inactive)
REMARK    1  A    between atoms: _1  and  _3
REMARK    2  A    between atoms: _3  and  _4
REMARK    3  A    between atoms: _3  and  _6
REMARK    4  A    between atoms: _6  and  _7
REMARK    5  A    between atoms: _10  and  _12
REMARK    6  A    between atoms: _12  and  _13
REMARK    7  A    between atoms: _12  and  _15
REMARK    8  A    between atoms: _15  and  _16
REMARK    9  A    between atoms: _19  and  _21
REMARK   10  A    between atoms: _21  and  _22
REMARK   11  A    between atoms: _21  and  _24
REMARK   12  A    between atoms: _24  and  _25
REMARK   13  A    between atoms: _27  and  _29
REMARK   14  A    between atoms: _29  and  _30
REMARK   15  A    between atoms: _29  and  _32
REMARK   16  A    between atoms: _32  and  _33
REMARK   17  A    between atoms: _38  and  _40
REMARK   18  A    between atoms: _40  and  _41
REMARK   19  A    between atoms: _40  and  _43
REMARK   20  A    between atoms: _43  and  _44
REMARK   21  A    between atoms: _44  and  _45
REMARK   22  A    between atoms: _48  and  _50
REMARK   23  A    between atoms: _50  and  _51
REMARK   24  A    between atoms: _54  and  _56
REMARK   25  A    between atoms: _56  and  _57
REMARK   26  A    between atoms: _56  and  _59
REMARK   27  A    between atoms: _59  and  _60
REMARK   28  A    between atoms: _60  and  _61
REMARK   29  A    between atoms: _64  and  _66
REMARK   30  A    between atoms: _66  and  _67
REMARK   31  A    between atoms: _66  and  _69
REMARK   32  A    between atoms: _69  and  _70
REMARK   33  A    between atoms: _70  and  _71
REMARK   34  A    between atoms: _71  and  _72
REMARK   35  A    between atoms: _72  and  _73
REMARK   36  A    between atoms: _77  and  _79
REMARK   37  A    between atoms: _79  and  _80
REMARK   38  A    between atoms: _79  and  _82
REMARK   39  A    between atoms: _82  and  _83
REMARK   40  A    between atoms: _88  and  _89
REMARK   41  A    between atoms: _91  and  _93
REMARK   42  A    between atoms: _93  and  _94
REMARK   43  A    between atoms: _93  and  _96
REMARK   44  A    between atoms: _96  and  _97
REMARK   45  A    between atoms: _102  and  _104
REMARK   46  A    between atoms: _104  and  _105
REMARK   47  A    between atoms: _104  and  _107
REMARK   48  A    between atoms: _111  and  _112
REMARK   49  A    between atoms: _117  and  _119
REMARK   50  A    between atoms: _119  and  _120
REMARK   51  A    between atoms: _119  and  _122
REMARK   52  A    between atoms: _122  and  _123
REMARK   53  A    between atoms: _129  and  _131
REMARK   54  A    between atoms: _131  and  _132
REMARK   55  A    between atoms: _134  and  _136
REMARK   56  A    between atoms: _136  and  _137
REMARK   57  A    between atoms: _136  and  _139
REMARK   58  A    between atoms: _139  and  _140
REMARK   59  A    between atoms: _140  and  _141
REMARK   60  A    between atoms: _144  and  _146
REMARK   61  A    between atoms: _146  and  _147
REMARK   62  A    between atoms: _150  and  _152
REMARK   63  A    between atoms: _152  and  _153
REMARK   64  A    between atoms: _152  and  _155
REMARK   65  A    between atoms: _155  and  _156
REMARK   66  A    between atoms: _161  and  _163
REMARK   67  A    between atoms: _163  and  _164
REMARK   68  A    between atoms: _167  and  _169
REMARK   69  A    between atoms: _169  and  _170
REMARK   70  A    between atoms: _169  and  _172
REMARK   71  A    between atoms: _172  and  _173
REMARK   72  A    between atoms: _173  and  _174
REMARK   73  A    between atoms: _174  and  _175
REMARK   74  A    between atoms: _175  and  _176
REMARK   75  A    between atoms: _180  and  _182
REMARK   76  A    between atoms: _182  and  _183
REMARK   77  A    between atoms: _182  and  _185
REMARK   78  A    between atoms: _185  and  _186
REMARK   79  A    between atoms: _186  and  _187
REMARK   80  A    between atoms: _187  and  _188
REMARK   81  A    between atoms: _188  and  _189
REMARK   82  A    between atoms: _193  and  _195
REMARK   83  A    between atoms: _195  and  _196
REMARK   84  A    between atoms: _195  and  _198
REMARK   85  A    between atoms: _198  and  _199
REMARK   86  A    between atoms: _199  and  _200
REMARK   87  A    between atoms: _200  and  _201
REMARK   88  A    between atoms: _210  and  _212
REMARK   89  A    between atoms: _212  and  _213
REMARK   90  A    between atoms: _212  and  _215
REMARK   91  A    between atoms: _215  and  _216
REMARK   92  A    between atoms: _216  and  _217
REMARK   93  A    between atoms: _220  and  _222
REMARK   94  A    between atoms: _222  and  _223
REMARK   95  A    between atoms: _222  and  _225
REMARK   96  A    between atoms: _228  and  _230
REMARK   97  A    between atoms: _230  and  _231
REMARK   98  A    between atoms: _234  and  _236
REMARK   99  A    between atoms: _236  and  _237
REMARK  100  A    between atoms: _236  and  _239
REMARK  101  A    between atoms: _239  and  _240
REMARK  102  A    between atoms: _250  and  _252
REMARK  103  A    between atoms: _252  and  _253
REMARK  104  A    between atoms: _252  and  _255
REMARK  105  A    between atoms: _258  and  _260
REMARK  106  A    between atoms: _260  and  _261
REMARK  107  A    between atoms: _260  and  _263
REMARK  108  A    between atoms: _263  and  _264
REMARK  109  A    between atoms: _267  and  _269
REMARK  110  A    between atoms: _269  and  _270
REMARK  111  A    between atoms: _269  and  _272
REMARK  112  A    between atoms: _272  and  _273
REMARK  113  A    between atoms: _279  and  _281
REMARK  114  A    between atoms: _281  and  _282
REMARK  115  A    between atoms: _281  and  _284
REMARK  116  A    between atoms: _284  and  _285
REMARK  117  A    between atoms: _285  and  _286
REMARK  118  A    between atoms: _291  and  _293
REMARK  119  A    between atoms: _293  and  _294
REMARK  120  A    between atoms: _293  and  _296
REMARK  121  A    between atoms: _299  and  _301
REMARK  122  A    between atoms: _301  and  _302
REMARK  123  A    between atoms: _301  and  _304
REMARK  124  A    between atoms: _304  and  _305
REMARK  125  A    between atoms: _308  and  _310
REMARK  126  A    between atoms: _310  and  _311
REMARK  127  A    between atoms: _310  and  _313
REMARK  128  A    between atoms: _313  and  _314
REMARK  129  A    between atoms: _317  and  _319
REMARK  130  A    between atoms: _319  and  _320
REMARK  131  A    between atoms: _319  and  _322
REMARK  132  A    between atoms: _322  and  _323
REMARK  133  A    between atoms: _326  and  _328
REMARK  134  A    between atoms: _328  and  _329
REMARK  135  A    between atoms: _328  and  _331
REMARK  136  A    between atoms: _331  and  _332
REMARK  137  A    between atoms: _335  and  _337
REMARK  138  A    between atoms: _337  and  _338
REMARK  139  A    between atoms: _337  and  _340
REMARK  140  A    between atoms: _340  and  _341
REMARK  141  A    between atoms: _341  and  _342
REMARK  142  A    between atoms: _342  and  _343
REMARK  143  A    between atoms: _352  and  _354
REMARK  144  A    between atoms: _354  and  _355
REMARK  145  A    between atoms: _354  and  _357
REMARK  146  A    between atoms: _357  and  _358
REMARK  147  A    between atoms: _361  and  _363
REMARK  148  A    between atoms: _363  and  _364
REMARK  149  A    between atoms: _363  and  _366
REMARK  150  A    between atoms: _366  and  _367
REMARK  151  A    between atoms: _371  and  _372
REMARK  152  A    between atoms: _377  and  _379
REMARK  153  A    between atoms: _379  and  _380
REMARK  154  A    between atoms: _379  and  _382
REMARK  155  A    between atoms: _382  and  _383
REMARK  156  A    between atoms: _388  and  _389
REMARK  157  A    between atoms: _391  and  _393
REMARK  158  A    between atoms: _393  and  _394
REMARK  159  A    between atoms: _393  and  _396
REMARK  160  A    between atoms: _396  and  _397
REMARK  161  A    between atoms: _407  and  _409
REMARK  162  A    between atoms: _409  and  _410
REMARK  163  A    between atoms: _409  and  _412
REMARK  164  A    between atoms: _412  and  _413
REMARK  165  A    between atoms: _419  and  _421
REMARK  166  A    between atoms: _421  and  _422
REMARK  167  A    between atoms: _421  and  _424
REMARK  168  A    between atoms: _424  and  _425
REMARK  169  A    between atoms: _428  and  _430
REMARK  170  A    between atoms: _430  and  _431
REMARK  171  A    between atoms: _430  and  _433
REMARK  172  A    between atoms: _433  and  _434
REMARK  173  A    between atoms: _444  and  _446
REMARK  174  A    between atoms: _446  and  _447
REMARK  175  A    between atoms: _446  and  _449
REMARK  176  A    between atoms: _449  and  _450
REMARK  177  A    between atoms: _450  and  _451
REMARK  178  A    between atoms: _453  and  _455
REMARK  179  A    between atoms: _455  and  _456
REMARK  180  A    between atoms: _455  and  _458
REMARK  181  A    between atoms: _458  and  _459
REMARK  182  A    between atoms: _464  and  _466
REMARK  183  A    between atoms: _466  and  _467
REMARK  184  A    between atoms: _470  and  _471
REMARK  185  A    between atoms: _476  and  _478
REMARK  186  A    between atoms: _478  and  _479
REMARK  187  A    between atoms: _478  and  _481
REMARK  188  A    between atoms: _481  and  _482
REMARK  189  A    between atoms: _492  and  _494
REMARK  190  A    between atoms: _494  and  _495
REMARK  191  A    between atoms: _499  and  _500
REMARK  192  A    between atoms: _505  and  _507
REMARK  193  A    between atoms: _507  and  _508
REMARK  194  A    between atoms: _507  and  _510
REMARK  195  A    between atoms: _510  and  _511
REMARK  196  A    between atoms: _511  and  _512
REMARK  197  A    between atoms: _517  and  _519
REMARK  198  A    between atoms: _519  and  _520
REMARK  199  A    between atoms: _522  and  _524
REMARK  200  A    between atoms: _524  and  _525
REMARK  201  A    between atoms: _527  and  _529
REMARK  202  A    between atoms: _529  and  _530
REMARK  203  A    between atoms: _529  and  _532
REMARK  204  A    between atoms: _532  and  _533
REMARK  205  A    between atoms: _543  and  _545
REMARK  206  A    between atoms: _545  and  _546
REMARK  207  A    between atoms: _545  and  _548
REMARK  208  A    between atoms: _548  and  _549
REMARK  209  A    between atoms: _552  and  _554
REMARK  210  A    between atoms: _554  and  _555
REMARK  211  A    between atoms: _554  and  _557
REMARK  212  A    between atoms: _557  and  _558
REMARK  213  A    between atoms: _561  and  _563
REMARK  214  A    between atoms: _563  and  _564
REMARK  215  A    between atoms: _563  and  _566
REMARK  216  A    between atoms: _566  and  _567
REMARK  217  A    between atoms: _567  and  _568
REMARK  218  A    between atoms: _568  and  _569
REMARK  219  A    between atoms: _578  and  _580
REMARK  220  A    between atoms: _580  and  _581
REMARK  221  A    between atoms: _580  and  _583
REMARK  222  A    between atoms: _583  and  _584
REMARK  223  A    between atoms: _594  and  _596
REMARK  224  A    between atoms: _596  and  _597
REMARK  225  A    between atoms: _599  and  _601
REMARK  226  A    between atoms: _601  and  _602
REMARK  227  A    between atoms: _601  and  _604
REMARK  228  A    between atoms: _604  and  _605
REMARK  229  A    between atoms: _610  and  _612
REMARK  230  A    between atoms: _612  and  _613
REMARK  231  A    between atoms: _616  and  _618
REMARK  232  A    between atoms: _618  and  _619
REMARK  233  A    between atoms: _618  and  _621
REMARK  234  A    between atoms: _621  and  _622
REMARK  235  A    between atoms: _625  and  _627
REMARK  236  A    between atoms: _627  and  _628
REMARK  237  A    between atoms: _627  and  _630
REMARK  238  A    between atoms: _630  and  _631
REMARK  239  A    between atoms: _637  and  _639
REMARK  240  A    between atoms: _639  and  _640
REMARK  241  A    between atoms: _639  and  _642
REMARK  242  A    between atoms: _642  and  _643
REMARK  243  A    between atoms: _643  and  _644
REMARK  244  A    between atoms: _647  and  _649
REMARK  245  A    between atoms: _649  and  _650
REMARK  246  A    between atoms: _649  and  _652
REMARK  247  A    between atoms: _652  and  _653
REMARK  248  A    between atoms: _653  and  _654
REMARK  249  A    between atoms: _654  and  _655
REMARK                            x       y       z     vdW  Elec       q    Type
REMARK                         _______ _______ _______ _____ _____    ______ ____
ROOT
ATOM      1  C   PRO A   3      -3.054   5.102  19.398  0.00  0.00    +0.241 C 
ATOM      2  N   TRP A   4      -3.339   3.837  19.147  0.00  0.00    -0.297 N 
ATOM      3  H   TRP A   4      -3.269   3.132  19.908  0.00  0.00    +0.150 HD
ATOM      4  O   PRO A   3      -3.038   5.995  18.537  0.00  0.00    -0.273 OA
ENDROOT
BRANCH   1  10
ATOM      5  C   GLY A   2      -4.650   4.524  21.920  0.00  0.00    +0.246 C 
ATOM      6  N   PRO A   3      -3.318   4.625  21.831  0.00  0.00    -0.272 N 
ATOM      7  CD  PRO A   3      -2.329   4.010  22.739  0.00  0.00    +0.094 C 
ATOM      8  CG  PRO A   3      -1.135   4.817  22.544  0.00  0.00    +0.024 C 
ATOM      9  CB  PRO A   3      -1.202   5.296  21.067  0.00  0.00    +0.031 C 
ATOM     10  CA  PRO A   3      -2.694   5.479  20.815  0.00  0.00    +0.152 C 
ATOM     11  O   GLY A   2      -5.404   5.073  21.078  0.00  0.00    -0.273 OA
BRANCH   5  12
ATOM     12  CA  GLY A   2      -5.226   3.625  23.057  0.00  0.00    +0.176 C 
BRANCH  12  15
ATOM     13  C   ASN A   1      -7.410   3.771  24.011  0.00  0.00    +0.239 C 
ATOM     14  O   ASN A   1      -6.895   4.221  25.069  0.00  0.00    -0.274 OA
ATOM     15  N   GLY A   2      -6.664   3.467  22.945  0.00  0.00    -0.296 N 
ATOM     16  H   GLY A   2      -7.100   3.128  22.064  0.00  0.00    +0.150 HD
BRANCH  13  17
ATOM     17  CA  ASN A   1      -8.905   3.591  23.916  0.00  0.00    +0.154 C 
BRANCH  17  18
ATOM     18  N   ASN A   1      -9.526   4.042  25.162  0.00  0.00    -0.238 NA
ATOM     19  H   ASN A   1      -9.021   4.683  25.808  0.00  0.00    +0.142 HD
ENDBRANCH  17  18
BRANCH  17  20
ATOM     20  CB  ASN A   1      -9.534   4.337  22.736  0.00  0.00    +0.111 C 
BRANCH  20  21
ATOM     21  CG  ASN A   1      -9.603   3.498  21.459  0.00  0.00    +0.221 C 
ATOM     22  OD1 ASN A   1      -8.779   2.603  21.233  0.00  0.00    -0.275 OA
ATOM     23  ND2 ASN A   1     -10.606   3.791  20.633  0.00  0.00    -0.329 N 
ATOM     24 HD21 ASN A   1     -11.271   4.554  20.872  0.00  0.00    +0.145 HD
ATOM     25 HD22 ASN A   1     -10.724   3.257  19.749  0.00  0.00    +0.145 HD
ENDBRANCH  20  21
ENDBRANCH  17  20
ENDBRANCH  13  17
ENDBRANCH  12  15
ENDBRANCH   5  12
ENDBRANCH   1  10
BRANCH   2  26
ATOM     26  CA  TRP A   4      -3.754   3.417  17.804  0.00  0.00    +0.153 C 
BRANCH  26  27
ATOM     27  C   TRP A   4      -5.060   4.018  17.308  0.00  0.00    +0.241 C 
ATOM     28  N   ALA A   5      -5.771   4.728  18.200  0.00  0.00    -0.298 N 
ATOM     29  H   ALA A   5      -5.417   4.821  19.173  0.00  0.00    +0.150 HD
ATOM     30  O   TRP A   4      -5.472   3.808  16.138  0.00  0.00    -0.273 OA
BRANCH  28  31
ATOM     31  CA  ALA A   5      -7.048   5.382  17.829  0.00  0.00    +0.137 C 
ATOM     32  CB  ALA A   5      -8.058   5.273  18.986  0.00  0.00    +0.030 C 
BRANCH  31  33
ATOM     33  C   ALA A   5      -6.896   6.839  17.473  0.00  0.00    +0.227 C 
ATOM     34  O   ALA A   5      -7.853   7.426  16.963  0.00  0.00    -0.286 OA
ENDBRANCH  31  33
ENDBRANCH  28  31
ENDBRANCH  26  27
BRANCH  26  35
ATOM     35  CB  TRP A   4      -3.833   1.871  17.767  0.00  0.00    +0.057 C 
BRANCH  35  36
ATOM     36  CG  TRP A   4      -4.856   1.362  18.743  0.00  0.00    -0.002 A 
ATOM     37  CD2 TRP A   4      -4.622   0.956  20.108  0.00  0.00    +0.013 A 
ATOM     38  CE3 TRP A   4      -3.472   0.871  20.906  0.00  0.00    +0.001 A 
ATOM     39  CZ3 TRP A   4      -3.601   0.411  22.254  0.00  0.00    +0.000 A 
ATOM     40  CH2 TRP A   4      -4.892   0.030  22.765  0.00  0.00    +0.001 A 
ATOM     41  CZ2 TRP A   4      -6.023   0.105  21.979  0.00  0.00    +0.017 A 
ATOM     42  CE2 TRP A   4      -5.877   0.599  20.652  0.00  0.00    +0.056 A 
ATOM     43  NE1 TRP A   4      -6.821   0.765  19.663  0.00  0.00    -0.352 N 
ATOM     44  HE1 TRP A   4      -7.842   0.597  19.765  0.00  0.00    +0.166 HD
ATOM     45  CD1 TRP A   4      -6.178   1.197  18.499  0.00  0.00    +0.068 A 
ENDBRANCH  35  36
ENDBRANCH  26  35
ENDBRANCH   2  26
TORSDOF 13
REMARK  Name = ../refined-set-2016/3jzj/3jzj_pocket.pdb
REMARK  249 active torsions:
REMARK  status: ('A' for Active; 'I' for Inactive)
REMARK    1  A    between atoms: _1  and  _3
REMARK    2  A    between atoms: _3  and  _4
REMARK    3  A    between atoms: _3  and  _6
REMARK    4  A    between atoms: _6  and  _7
REMARK    5  A    between atoms: _10  and  _12
REMARK    6  A    between atoms: _12  and  _13
REMARK    7  A    between atoms: _12  and  _15
REMARK    8  A    between atoms: _15  and  _16
REMARK    9  A    between atoms: _19  and  _21
REMARK   10  A    between atoms: _21  and  _22
REMARK   11  A    between atoms: _21  and  _24
REMARK   12  A    between atoms: _24  and  _25
REMARK   13  A    between atoms: _27  and  _29
REMARK   14  A    between atoms: _29  and  _30
REMARK   15  A    between atoms: _29  and  _32
REMARK   16  A    between atoms: _32  and  _33
REMARK   17  A    between atoms: _38  and  _40
REMARK   18  A    between atoms: _40  and  _41
REMARK   19  A    between atoms: _40  and  _43
REMARK   20  A    between atoms: _43  and  _44
REMARK   21  A    between atoms: _44  and  _45
REMARK   22  A    between atoms: _48  and  _50
REMARK   23  A    between atoms: _50  and  _51
REMARK   24  A    between atoms: _54  and  _56
REMARK   25  A    between atoms: _56  and  _57
REMARK   26  A    between atoms: _56  and  _59
REMARK   27  A    between atoms: _59  and  _60
REMARK   28  A    between atoms: _60  and  _61
REMARK   29  A    between atoms: _64  and  _66
REMARK   30  A    between atoms: _66  and  _67
REMARK   31  A    between atoms: _66  and  _69
REMARK   32  A    between atoms: _69  and  _70
REMARK   33  A    between atoms: _70  and  _71
REMARK   34  A    between atoms: _71  and  _72
REMARK   35  A    between atoms: _72  and  _73
REMARK   36  A    between atoms: _77  and  _79
REMARK   37  A    between atoms: _79  and  _80
REMARK   38  A    between atoms: _79  and  _82
REMARK   39  A    between atoms: _82  and  _83
REMARK   40  A    between atoms: _88  and  _89
REMARK   41  A    between atoms: _91  and  _93
REMARK   42  A    between atoms: _93  and  _94
REMARK   43  A    between atoms: _93  and  _96
REMARK   44  A    between atoms: _96  and  _97
REMARK   45  A    between atoms: _102  and  _104
REMARK   46  A    between atoms: _104  and  _105
REMARK   47  A    between atoms: _104  and  _107
REMARK   48  A    between atoms: _111  and  _112
REMARK   49  A    between atoms: _117  and  _119
REMARK   50  A    between atoms: _119  and  _120
REMARK   51  A    between atoms: _119  and  _122
REMARK   52  A    between atoms: _122  and  _123
REMARK   53  A    between atoms: _129  and  _131
REMARK   54  A    between atoms: _131  and  _132
REMARK   55  A    between atoms: _134  and  _136
REMARK   56  A    between atoms: _136  and  _137
REMARK   57  A    between atoms: _136  and  _139
REMARK   58  A    between atoms: _139  and  _140
REMARK   59  A    between atoms: _140  and  _141
REMARK   60  A    between atoms: _144  and  _146
REMARK   61  A    between atoms: _146  and  _147
REMARK   62  A    between atoms: _150  and  _152
REMARK   63  A    between atoms: _152  and  _153
REMARK   64  A    between atoms: _152  and  _155
REMARK   65  A    between atoms: _155  and  _156
REMARK   66  A    between atoms: _161  and  _163
REMARK   67  A    between atoms: _163  and  _164
REMARK   68  A    between atoms: _167  and  _169
REMARK   69  A    between atoms: _169  and  _170
REMARK   70  A    between atoms: _169  and  _172
REMARK   71  A    between atoms: _172  and  _173
REMARK   72  A    between atoms: _173  and  _174
REMARK   73  A    between atoms: _174  and  _175
REMARK   74  A    between atoms: _175  and  _176
REMARK   75  A    between atoms: _180  and  _182
REMARK   76  A    between atoms: _182  and  _183
REMARK   77  A    between atoms: _182  and  _185
REMARK   78  A    between atoms: _185  and  _186
REMARK   79  A    between atoms: _186  and  _187
REMARK   80  A    between atoms: _187  and  _188
REMARK   81  A    between atoms: _188  and  _189
REMARK   82  A    between atoms: _193  and  _195
REMARK   83  A    between atoms: _195  and  _196
REMARK   84  A    between atoms: _195  and  _198
REMARK   85  A    between atoms: _198  and  _199
REMARK   86  A    between atoms: _199  and  _200
REMARK   87  A    between atoms: _200  and  _201
REMARK   88  A    between atoms: _210  and  _212
REMARK   89  A    between atoms: _212  and  _213
REMARK   90  A    between atoms: _212  and  _215
REMARK   91  A    between atoms: _215  and  _216
REMARK   92  A    between atoms: _216  and  _217
REMARK   93  A    between atoms: _220  and  _222
REMARK   94  A    between atoms: _222  and  _223
REMARK   95  A    between atoms: _222  and  _225
REMARK   96  A    between atoms: _228  and  _230
REMARK   97  A    between atoms: _230  and  _231
REMARK   98  A    between atoms: _234  and  _236
REMARK   99  A    between atoms: _236  and  _237
REMARK  100  A    between atoms: _236  and  _239
REMARK  101  A    between atoms: _239  and  _240
REMARK  102  A    between atoms: _250  and  _252
REMARK  103  A    between atoms: _252  and  _253
REMARK  104  A    between atoms: _252  and  _255
REMARK  105  A    between atoms: _258  and  _260
REMARK  106  A    between atoms: _260  and  _261
REMARK  107  A    between atoms: _260  and  _263
REMARK  108  A    between atoms: _263  and  _264
REMARK  109  A    between atoms: _267  and  _269
REMARK  110  A    between atoms: _269  and  _270
REMARK  111  A    between atoms: _269  and  _272
REMARK  112  A    between atoms: _272  and  _273
REMARK  113  A    between atoms: _279  and  _281
REMARK  114  A    between atoms: _281  and  _282
REMARK  115  A    between atoms: _281  and  _284
REMARK  116  A    between atoms: _284  and  _285
REMARK  117  A    between atoms: _285  and  _286
REMARK  118  A    between atoms: _291  and  _293
REMARK  119  A    between atoms: _293  and  _294
REMARK  120  A    between atoms: _293  and  _296
REMARK  121  A    between atoms: _299  and  _301
REMARK  122  A    between atoms: _301  and  _302
REMARK  123  A    between atoms: _301  and  _304
REMARK  124  A    between atoms: _304  and  _305
REMARK  125  A    between atoms: _308  and  _310
REMARK  126  A    between atoms: _310  and  _311
REMARK  127  A    between atoms: _310  and  _313
REMARK  128  A    between atoms: _313  and  _314
REMARK  129  A    between atoms: _317  and  _319
REMARK  130  A    between atoms: _319  and  _320
REMARK  131  A    between atoms: _319  and  _322
REMARK  132  A    between atoms: _322  and  _323
REMARK  133  A    between atoms: _326  and  _328
REMARK  134  A    between atoms: _328  and  _329
REMARK  135  A    between atoms: _328  and  _331
REMARK  136  A    between atoms: _331  and  _332
REMARK  137  A    between atoms: _335  and  _337
REMARK  138  A    between atoms: _337  and  _338
REMARK  139  A    between atoms: _337  and  _340
REMARK  140  A    between atoms: _340  and  _341
REMARK  141  A    between atoms: _341  and  _342
REMARK  142  A    between atoms: _342  and  _343
REMARK  143  A    between atoms: _352  and  _354
REMARK  144  A    between atoms: _354  and  _355
REMARK  145  A    between atoms: _354  and  _357
REMARK  146  A    between atoms: _357  and  _358
REMARK  147  A    between atoms: _361  and  _363
REMARK  148  A    between atoms: _363  and  _364
REMARK  149  A    between atoms: _363  and  _366
REMARK  150  A    between atoms: _366  and  _367
REMARK  151  A    between atoms: _371  and  _372
REMARK  152  A    between atoms: _377  and  _379
REMARK  153  A    between atoms: _379  and  _380
REMARK  154  A    between atoms: _379  and  _382
REMARK  155  A    between atoms: _382  and  _383
REMARK  156  A    between atoms: _388  and  _389
REMARK  157  A    between atoms: _391  and  _393
REMARK  158  A    between atoms: _393  and  _394
REMARK  159  A    between atoms: _393  and  _396
REMARK  160  A    between atoms: _396  and  _397
REMARK  161  A    between atoms: _407  and  _409
REMARK  162  A    between atoms: _409  and  _410
REMARK  163  A    between atoms: _409  and  _412
REMARK  164  A    between atoms: _412  and  _413
REMARK  165  A    between atoms: _419  and  _421
REMARK  166  A    between atoms: _421  and  _422
REMARK  167  A    between atoms: _421  and  _424
REMARK  168  A    between atoms: _424  and  _425
REMARK  169  A    between atoms: _428  and  _430
REMARK  170  A    between atoms: _430  and  _431
REMARK  171  A    between atoms: _430  and  _433
REMARK  172  A    between atoms: _433  and  _434
REMARK  173  A    between atoms: _444  and  _446
REMARK  174  A    between atoms: _446  and  _447
REMARK  175  A    between atoms: _446  and  _449
REMARK  176  A    between atoms: _449  and  _450
REMARK  177  A    between atoms: _450  and  _451
REMARK  178  A    between atoms: _453  and  _455
REMARK  179  A    between atoms: _455  and  _456
REMARK  180  A    between atoms: _455  and  _458
REMARK  181  A    between atoms: _458  and  _459
REMARK  182  A    between atoms: _464  and  _466
REMARK  183  A    between atoms: _466  and  _467
REMARK  184  A    between atoms: _470  and  _471
REMARK  185  A    between atoms: _476  and  _478
REMARK  186  A    between atoms: _478  and  _479
REMARK  187  A    between atoms: _478  and  _481
REMARK  188  A    between atoms: _481  and  _482
REMARK  189  A    between atoms: _492  and  _494
REMARK  190  A    between atoms: _494  and  _495
REMARK  191  A    between atoms: _499  and  _500
REMARK  192  A    between atoms: _505  and  _507
REMARK  193  A    between atoms: _507  and  _508
REMARK  194  A    between atoms: _507  and  _510
REMARK  195  A    between atoms: _510  and  _511
REMARK  196  A    between atoms: _511  and  _512
REMARK  197  A    between atoms: _517  and  _519
REMARK  198  A    between atoms: _519  and  _520
REMARK  199  A    between atoms: _522  and  _524
REMARK  200  A    between atoms: _524  and  _525
REMARK  201  A    between atoms: _527  and  _529
REMARK  202  A    between atoms: _529  and  _530
REMARK  203  A    between atoms: _529  and  _532
REMARK  204  A    between atoms: _532  and  _533
REMARK  205  A    between atoms: _543  and  _545
REMARK  206  A    between atoms: _545  and  _546
REMARK  207  A    between atoms: _545  and  _548
REMARK  208  A    between atoms: _548  and  _549
REMARK  209  A    between atoms: _552  and  _554
REMARK  210  A    between atoms: _554  and  _555
REMARK  211  A    between atoms: _554  and  _557
REMARK  212  A    between atoms: _557  and  _558
REMARK  213  A    between atoms: _561  and  _563
REMARK  214  A    between atoms: _563  and  _564
REMARK  215  A    between atoms: _563  and  _566
REMARK  216  A    between atoms: _566  and  _567
REMARK  217  A    between atoms: _567  and  _568
REMARK  218  A    between atoms: _568  and  _569
REMARK  219  A    between atoms: _578  and  _580
REMARK  220  A    between atoms: _580  and  _581
REMARK  221  A    between atoms: _580  and  _583
REMARK  222  A    between atoms: _583  and  _584
REMARK  223  A    between atoms: _594  and  _596
REMARK  224  A    between atoms: _596  and  _597
REMARK  225  A    between atoms: _599  and  _601
REMARK  226  A    between atoms: _601  and  _602
REMARK  227  A    between atoms: _601  and  _604
REMARK  228  A    between atoms: _604  and  _605
REMARK  229  A    between atoms: _610  and  _612
REMARK  230  A    between atoms: _612  and  _613
REMARK  231  A    between atoms: _616  and  _618
REMARK  232  A    between atoms: _618  and  _619
REMARK  233  A    between atoms: _618  and  _621
REMARK  234  A    between atoms: _621  and  _622
REMARK  235  A    between atoms: _625  and  _627
REMARK  236  A    between atoms: _627  and  _628
REMARK  237  A    between atoms: _627  and  _630
REMARK  238  A    between atoms: _630  and  _631
REMARK  239  A    between atoms: _637  and  _639
REMARK  240  A    between atoms: _639  and  _640
REMARK  241  A    between atoms: _639  and  _642
REMARK  242  A    between atoms: _642  and  _643
REMARK  243  A    between atoms: _643  and  _644
REMARK  244  A    between atoms: _647  and  _649
REMARK  245  A    between atoms: _649  and  _650
REMARK  246  A    between atoms: _649  and  _652
REMARK  247  A    between atoms: _652  and  _653
REMARK  248  A    between atoms: _653  and  _654
REMARK  249  A    between atoms: _654  and  _655
REMARK                            x       y       z     vdW  Elec       q    Type
REMARK                         _______ _______ _______ _____ _____    ______ ____
ROOT
ATOM      1  C   GLY A   3       1.322  -3.213  24.432  0.00  0.00    +0.243 C 
ATOM      2  O   GLY A   3       2.277  -2.540  24.807  0.00  0.00    -0.273 OA
ATOM      3  N   GLY A   4       1.131  -3.583  23.176  0.00  0.00    -0.295 N 
ATOM      4  H   GLY A   4       0.309  -4.166  22.918  0.00  0.00    +0.150 HD
ENDROOT
BRANCH   1   5
ATOM      5  CA  GLY A   3       0.253  -3.672  25.412  0.00  0.00    +0.176 C 
BRANCH   5   8
ATOM      6  C   GLN A   2       0.373  -3.504  27.833  0.00  0.00    +0.241 C 
ATOM      7  O   GLN A   2       0.224  -4.725  27.985  0.00  0.00    -0.273 OA
ATOM      8  N   GLY A   3       0.399  -2.918  26.638  0.00  0.00    -0.295 N 
ATOM      9  H   GLY A   3       0.528  -1.887  26.584  0.00  0.00    +0.150 HD
BRANCH   6  10
ATOM     10  CA  GLN A   2       0.589  -2.604  29.026  0.00  0.00    +0.149 C 
BRANCH  10  12
ATOM     11  C   PRO A   1      -1.589  -2.142  30.050  0.00  0.00    +0.239 C 
ATOM     12  N   GLN A   2      -0.456  -2.827  30.029  0.00  0.00    -0.297 N 
ATOM     13  H   GLN A   2      -0.301  -3.555  30.756  0.00  0.00    +0.150 HD
ATOM     14  O   PRO A   1      -1.799  -1.145  29.379  0.00  0.00    -0.274 OA
BRANCH  11  16
ATOM     15  N   PRO A   1      -3.594  -1.568  31.491  0.00  0.00    -0.210 NA
ATOM     16  CA  PRO A   1      -2.682  -2.621  31.023  0.00  0.00    +0.149 C 
ATOM     17  CB  PRO A   1      -3.619  -3.588  30.265  0.00  0.00    +0.028 C 
ATOM     18  CG  PRO A   1      -4.754  -2.703  29.795  0.00  0.00    +0.021 C 
ATOM     19  CD  PRO A   1      -4.957  -1.702  30.899  0.00  0.00    +0.089 C 
ENDBRANCH  11  16
ENDBRANCH  10  12
BRANCH  10  20
ATOM     20  CB  GLN A   2       1.926  -2.921  29.678  0.00  0.00    +0.039 C 
BRANCH  20  21
ATOM     21  CG  GLN A   2       3.149  -2.674  28.716  0.00  0.00    +0.087 C 
BRANCH  21  22
ATOM     22  CD  GLN A   2       4.300  -3.625  29.038  0.00  0.00    +0.219 C 
ATOM     23  OE1 GLN A   2       4.381  -4.149  30.145  0.00  0.00    -0.275 OA
ATOM     24  NE2 GLN A   2       5.202  -3.846  28.078  0.00  0.00    -0.329 N 
ATOM     25 HE21 GLN A   2       6.007  -4.480  28.256  0.00  0.00    +0.145 HD
ATOM     26 HE22 GLN A   2       5.100  -3.384  27.152  0.00  0.00    +0.145 HD
ENDBRANCH  21  22
ENDBRANCH  20  21
ENDBRANCH  10  20
ENDBRANCH   6  10
ENDBRANCH   5   8
ENDBRANCH   1   5
BRANCH   3  27
ATOM     27  CA  GLY A   4       2.075  -3.169  22.170  0.00  0.00    +0.176 C 
BRANCH  27  28
ATOM     28  C   GLY A   4       2.423  -4.240  21.169  0.00  0.00    +0.243 C 
ATOM     29  O   GLY A   4       1.805  -5.315  21.109  0.00  0.00    -0.273 OA
ATOM     30  N   TRP A   5       3.417  -3.899  20.361  0.00  0.00    -0.298 N 
ATOM     31  H   TRP A   5       3.947  -3.027  20.563  0.00  0.00    +0.150 HD
BRANCH  30  32
ATOM     32  CA  TRP A   5       3.801  -4.702  19.193  0.00  0.00    +0.141 C 
BRANCH  32  33
ATOM     33  C   TRP A   5       5.288  -4.798  19.082  0.00  0.00    +0.227 C 
ATOM     34  O   TRP A   5       6.004  -3.801  19.335  0.00  0.00    -0.286 OA
ENDBRANCH  32  33
BRANCH  32  35
ATOM     35  CB  TRP A   5       3.240  -4.098  17.886  0.00  0.00    +0.056 C 
BRANCH  35  36
ATOM     36  CG  TRP A   5       1.759  -4.229  17.938  0.00  0.00    -0.002 A 
ATOM     37  CD1 TRP A   5       0.850  -3.371  18.577  0.00  0.00    +0.068 A 
ATOM     38  NE1 TRP A   5      -0.431  -3.917  18.483  0.00  0.00    -0.352 N 
ATOM     39  HE1 TRP A   5      -1.295  -3.497  18.882  0.00  0.00    +0.166 HD
ATOM     40  CE2 TRP A   5      -0.373  -5.097  17.781  0.00  0.00    +0.056 A 
ATOM     41  CZ2 TRP A   5      -1.404  -5.987  17.416  0.00  0.00    +0.017 A 
ATOM     42  CH2 TRP A   5      -1.041  -7.112  16.707  0.00  0.00    +0.001 A 
ATOM     43  CZ3 TRP A   5       0.303  -7.343  16.347  0.00  0.00    +0.000 A 
ATOM     44  CE3 TRP A   5       1.312  -6.480  16.691  0.00  0.00    +0.001 A 
ATOM     45  CD2 TRP A   5       0.990  -5.313  17.404  0.00  0.00    +0.013 A 
ENDBRANCH  35  36
ENDBRANCH  32  35
ENDBRANCH  30  32
ENDBRANCH  27  28
ENDBRANCH   3  27
TORSDOF 14
REMARK  Name = ../refined-set-2016/3jzj/3jzj_pocket.pdb
REMARK  249 active torsions:
REMARK  status: ('A' for Active; 'I' for Inactive)
REMARK    1  A    between atoms: _1  and  _3
REMARK    2  A    between atoms: _3  and  _4
REMARK    3  A    between atoms: _3  and  _6
REMARK    4  A    between atoms: _6  and  _7
REMARK    5  A    between atoms: _10  and  _12
REMARK    6  A    between atoms: _12  and  _13
REMARK    7  A    between atoms: _12  and  _15
REMARK    8  A    between atoms: _15  and  _16
REMARK    9  A    between atoms: _19  and  _21
REMARK   10  A    between atoms: _21  and  _22
REMARK   11  A    between atoms: _21  and  _24
REMARK   12  A    between atoms: _24  and  _25
REMARK   13  A    between atoms: _27  and  _29
REMARK   14  A    between atoms: _29  and  _30
REMARK   15  A    between atoms: _29  and  _32
REMARK   16  A    between atoms: _32  and  _33
REMARK   17  A    between atoms: _38  and  _40
REMARK   18  A    between atoms: _40  and  _41
REMARK   19  A    between atoms: _40  and  _43
REMARK   20  A    between atoms: _43  and  _44
REMARK   21  A    between atoms: _44  and  _45
REMARK   22  A    between atoms: _48  and  _50
REMARK   23  A    between atoms: _50  and  _51
REMARK   24  A    between atoms: _54  and  _56
REMARK   25  A    between atoms: _56  and  _57
REMARK   26  A    between atoms: _56  and  _59
REMARK   27  A    between atoms: _59  and  _60
REMARK   28  A    between atoms: _60  and  _61
REMARK   29  A    between atoms: _64  and  _66
REMARK   30  A    between atoms: _66  and  _67
REMARK   31  A    between atoms: _66  and  _69
REMARK   32  A    between atoms: _69  and  _70
REMARK   33  A    between atoms: _70  and  _71
REMARK   34  A    between atoms: _71  and  _72
REMARK   35  A    between atoms: _72  and  _73
REMARK   36  A    between atoms: _77  and  _79
REMARK   37  A    between atoms: _79  and  _80
REMARK   38  A    between atoms: _79  and  _82
REMARK   39  A    between atoms: _82  and  _83
REMARK   40  A    between atoms: _88  and  _89
REMARK   41  A    between atoms: _91  and  _93
REMARK   42  A    between atoms: _93  and  _94
REMARK   43  A    between atoms: _93  and  _96
REMARK   44  A    between atoms: _96  and  _97
REMARK   45  A    between atoms: _102  and  _104
REMARK   46  A    between atoms: _104  and  _105
REMARK   47  A    between atoms: _104  and  _107
REMARK   48  A    between atoms: _111  and  _112
REMARK   49  A    between atoms: _117  and  _119
REMARK   50  A    between atoms: _119  and  _120
REMARK   51  A    between atoms: _119  and  _122
REMARK   52  A    between atoms: _122  and  _123
REMARK   53  A    between atoms: _129  and  _131
REMARK   54  A    between atoms: _131  and  _132
REMARK   55  A    between atoms: _134  and  _136
REMARK   56  A    between atoms: _136  and  _137
REMARK   57  A    between atoms: _136  and  _139
REMARK   58  A    between atoms: _139  and  _140
REMARK   59  A    between atoms: _140  and  _141
REMARK   60  A    between atoms: _144  and  _146
REMARK   61  A    between atoms: _146  and  _147
REMARK   62  A    between atoms: _150  and  _152
REMARK   63  A    between atoms: _152  and  _153
REMARK   64  A    between atoms: _152  and  _155
REMARK   65  A    between atoms: _155  and  _156
REMARK   66  A    between atoms: _161  and  _163
REMARK   67  A    between atoms: _163  and  _164
REMARK   68  A    between atoms: _167  and  _169
REMARK   69  A    between atoms: _169  and  _170
REMARK   70  A    between atoms: _169  and  _172
REMARK   71  A    between atoms: _172  and  _173
REMARK   72  A    between atoms: _173  and  _174
REMARK   73  A    between atoms: _174  and  _175
REMARK   74  A    between atoms: _175  and  _176
REMARK   75  A    between atoms: _180  and  _182
REMARK   76  A    between atoms: _182  and  _183
REMARK   77  A    between atoms: _182  and  _185
REMARK   78  A    between atoms: _185  and  _186
REMARK   79  A    between atoms: _186  and  _187
REMARK   80  A    between atoms: _187  and  _188
REMARK   81  A    between atoms: _188  and  _189
REMARK   82  A    between atoms: _193  and  _195
REMARK   83  A    between atoms: _195  and  _196
REMARK   84  A    between atoms: _195  and  _198
REMARK   85  A    between atoms: _198  and  _199
REMARK   86  A    between atoms: _199  and  _200
REMARK   87  A    between atoms: _200  and  _201
REMARK   88  A    between atoms: _210  and  _212
REMARK   89  A    between atoms: _212  and  _213
REMARK   90  A    between atoms: _212  and  _215
REMARK   91  A    between atoms: _215  and  _216
REMARK   92  A    between atoms: _216  and  _217
REMARK   93  A    between atoms: _220  and  _222
REMARK   94  A    between atoms: _222  and  _223
REMARK   95  A    between atoms: _222  and  _225
REMARK   96  A    between atoms: _228  and  _230
REMARK   97  A    between atoms: _230  and  _231
REMARK   98  A    between atoms: _234  and  _236
REMARK   99  A    between atoms: _236  and  _237
REMARK  100  A    between atoms: _236  and  _239
REMARK  101  A    between atoms: _239  and  _240
REMARK  102  A    between atoms: _250  and  _252
REMARK  103  A    between atoms: _252  and  _253
REMARK  104  A    between atoms: _252  and  _255
REMARK  105  A    between atoms: _258  and  _260
REMARK  106  A    between atoms: _260  and  _261
REMARK  107  A    between atoms: _260  and  _263
REMARK  108  A    between atoms: _263  and  _264
REMARK  109  A    between atoms: _267  and  _269
REMARK  110  A    between atoms: _269  and  _270
REMARK  111  A    between atoms: _269  and  _272
REMARK  112  A    between atoms: _272  and  _273
REMARK  113  A    between atoms: _279  and  _281
REMARK  114  A    between atoms: _281  and  _282
REMARK  115  A    between atoms: _281  and  _284
REMARK  116  A    between atoms: _284  and  _285
REMARK  117  A    between atoms: _285  and  _286
REMARK  118  A    between atoms: _291  and  _293
REMARK  119  A    between atoms: _293  and  _294
REMARK  120  A    between atoms: _293  and  _296
REMARK  121  A    between atoms: _299  and  _301
REMARK  122  A    between atoms: _301  and  _302
REMARK  123  A    between atoms: _301  and  _304
REMARK  124  A    between atoms: _304  and  _305
REMARK  125  A    between atoms: _308  and  _310
REMARK  126  A    between atoms: _310  and  _311
REMARK  127  A    between atoms: _310  and  _313
REMARK  128  A    between atoms: _313  and  _314
REMARK  129  A    between atoms: _317  and  _319
REMARK  130  A    between atoms: _319  and  _320
REMARK  131  A    between atoms: _319  and  _322
REMARK  132  A    between atoms: _322  and  _323
REMARK  133  A    between atoms: _326  and  _328
REMARK  134  A    between atoms: _328  and  _329
REMARK  135  A    between atoms: _328  and  _331
REMARK  136  A    between atoms: _331  and  _332
REMARK  137  A    between atoms: _335  and  _337
REMARK  138  A    between atoms: _337  and  _338
REMARK  139  A    between atoms: _337  and  _340
REMARK  140  A    between atoms: _340  and  _341
REMARK  141  A    between atoms: _341  and  _342
REMARK  142  A    between atoms: _342  and  _343
REMARK  143  A    between atoms: _352  and  _354
REMARK  144  A    between atoms: _354  and  _355
REMARK  145  A    between atoms: _354  and  _357
REMARK  146  A    between atoms: _357  and  _358
REMARK  147  A    between atoms: _361  and  _363
REMARK  148  A    between atoms: _363  and  _364
REMARK  149  A    between atoms: _363  and  _366
REMARK  150  A    between atoms: _366  and  _367
REMARK  151  A    between atoms: _371  and  _372
REMARK  152  A    between atoms: _377  and  _379
REMARK  153  A    between atoms: _379  and  _380
REMARK  154  A    between atoms: _379  and  _382
REMARK  155  A    between atoms: _382  and  _383
REMARK  156  A    between atoms: _388  and  _389
REMARK  157  A    between atoms: _391  and  _393
REMARK  158  A    between atoms: _393  and  _394
REMARK  159  A    between atoms: _393  and  _396
REMARK  160  A    between atoms: _396  and  _397
REMARK  161  A    between atoms: _407  and  _409
REMARK  162  A    between atoms: _409  and  _410
REMARK  163  A    between atoms: _409  and  _412
REMARK  164  A    between atoms: _412  and  _413
REMARK  165  A    between atoms: _419  and  _421
REMARK  166  A    between atoms: _421  and  _422
REMARK  167  A    between atoms: _421  and  _424
REMARK  168  A    between atoms: _424  and  _425
REMARK  169  A    between atoms: _428  and  _430
REMARK  170  A    between atoms: _430  and  _431
REMARK  171  A    between atoms: _430  and  _433
REMARK  172  A    between atoms: _433  and  _434
REMARK  173  A    between atoms: _444  and  _446
REMARK  174  A    between atoms: _446  and  _447
REMARK  175  A    between atoms: _446  and  _449
REMARK  176  A    between atoms: _449  and  _450
REMARK  177  A    between atoms: _450  and  _451
REMARK  178  A    between atoms: _453  and  _455
REMARK  179  A    between atoms: _455  and  _456
REMARK  180  A    between atoms: _455  and  _458
REMARK  181  A    between atoms: _458  and  _459
REMARK  182  A    between atoms: _464  and  _466
REMARK  183  A    between atoms: _466  and  _467
REMARK  184  A    between atoms: _470  and  _471
REMARK  185  A    between atoms: _476  and  _478
REMARK  186  A    between atoms: _478  and  _479
REMARK  187  A    between atoms: _478  and  _481
REMARK  188  A    between atoms: _481  and  _482
REMARK  189  A    between atoms: _492  and  _494
REMARK  190  A    between atoms: _494  and  _495
REMARK  191  A    between atoms: _499  and  _500
REMARK  192  A    between atoms: _505  and  _507
REMARK  193  A    between atoms: _507  and  _508
REMARK  194  A    between atoms: _507  and  _510
REMARK  195  A    between atoms: _510  and  _511
REMARK  196  A    between atoms: _511  and  _512
REMARK  197  A    between atoms: _517  and  _519
REMARK  198  A    between atoms: _519  and  _520
REMARK  199  A    between atoms: _522  and  _524
REMARK  200  A    between atoms: _524  and  _525
REMARK  201  A    between atoms: _527  and  _529
REMARK  202  A    between atoms: _529  and  _530
REMARK  203  A    between atoms: _529  and  _532
REMARK  204  A    between atoms: _532  and  _533
REMARK  205  A    between atoms: _543  and  _545
REMARK  206  A    between atoms: _545  and  _546
REMARK  207  A    between atoms: _545  and  _548
REMARK  208  A    between atoms: _548  and  _549
REMARK  209  A    between atoms: _552  and  _554
REMARK  210  A    between atoms: _554  and  _555
REMARK  211  A    between atoms: _554  and  _557
REMARK  212  A    between atoms: _557  and  _558
REMARK  213  A    between atoms: _561  and  _563
REMARK  214  A    between atoms: _563  and  _564
REMARK  215  A    between atoms: _563  and  _566
REMARK  216  A    between atoms: _566  and  _567
REMARK  217  A    between atoms: _567  and  _568
REMARK  218  A    between atoms: _568  and  _569
REMARK  219  A    between atoms: _578  and  _580
REMARK  220  A    between atoms: _580  and  _581
REMARK  221  A    between atoms: _580  and  _583
REMARK  222  A    between atoms: _583  and  _584
REMARK  223  A    between atoms: _594  and  _596
REMARK  224  A    between atoms: _596  and  _597
REMARK  225  A    between atoms: _599  and  _601
REMARK  226  A    between atoms: _601  and  _602
REMARK  227  A    between atoms: _601  and  _604
REMARK  228  A    between atoms: _604  and  _605
REMARK  229  A    between atoms: _610  and  _612
REMARK  230  A    between atoms: _612  and  _613
REMARK  231  A    between atoms: _616  and  _618
REMARK  232  A    between atoms: _618  and  _619
REMARK  233  A    between atoms: _618  and  _621
REMARK  234  A    between atoms: _621  and  _622
REMARK  235  A    between atoms: _625  and  _627
REMARK  236  A    between atoms: _627  and  _628
REMARK  237  A    between atoms: _627  and  _630
REMARK  238  A    between atoms: _630  and  _631
REMARK  239  A    between atoms: _637  and  _639
REMARK  240  A    between atoms: _639  and  _640
REMARK  241  A    between atoms: _639  and  _642
REMARK  242  A    between atoms: _642  and  _643
REMARK  243  A    between atoms: _643  and  _644
REMARK  244  A    between atoms: _647  and  _649
REMARK  245  A    between atoms: _649  and  _650
REMARK  246  A    between atoms: _649  and  _652
REMARK  247  A    between atoms: _652  and  _653
REMARK  248  A    between atoms: _653  and  _654
REMARK  249  A    between atoms: _654  and  _655
REMARK                            x       y       z     vdW  Elec       q    Type
REMARK                         _______ _______ _______ _____ _____    ______ ____
ROOT
ATOM      1  CA  LEU A   1       0.715   8.411  14.023  0.00  0.00    +0.133 C 
ENDROOT
BRANCH   1   2
ATOM      2  N   LEU A   1       1.805   9.162  13.408  0.00  0.00    -0.239 NA
ATOM      3  H   LEU A   1       2.752   9.124  13.837  0.00  0.00    +0.142 HD
ENDBRANCH   1   2
BRANCH   1   4
ATOM      4  C   LEU A   1       0.554   8.625  15.503  0.00  0.00    +0.224 C 
ATOM      5  O   LEU A   1      -0.500   8.220  16.033  0.00  0.00    -0.287 OA
ENDBRANCH   1   4
BRANCH   1   6
ATOM      6  CB  LEU A   1       0.900   6.914  13.762  0.00  0.00    +0.025 C 
BRANCH   6   7
ATOM      7  CG  LEU A   1       0.817   6.526  12.274  0.00  0.00    +0.002 C 
ATOM      8  CD2 LEU A   1       1.142   5.002  12.190  0.00  0.00    +0.000 C 
ATOM      9  CD1 LEU A   1      -0.540   6.756  11.622  0.00  0.00    +0.000 C 
ENDBRANCH   6   7
ENDBRANCH   1   6
TORSDOF 4
REMARK  Name = ../refined-set-2016/3jzj/3jzj_pocket.pdb
REMARK  249 active torsions:
REMARK  status: ('A' for Active; 'I' for Inactive)
REMARK    1  A    between atoms: _1  and  _3
REMARK    2  A    between atoms: _3  and  _4
REMARK    3  A    between atoms: _3  and  _6
REMARK    4  A    between atoms: _6  and  _7
REMARK    5  A    between atoms: _10  and  _12
REMARK    6  A    between atoms: _12  and  _13
REMARK    7  A    between atoms: _12  and  _15
REMARK    8  A    between atoms: _15  and  _16
REMARK    9  A    between atoms: _19  and  _21
REMARK   10  A    between atoms: _21  and  _22
REMARK   11  A    between atoms: _21  and  _24
REMARK   12  A    between atoms: _24  and  _25
REMARK   13  A    between atoms: _27  and  _29
REMARK   14  A    between atoms: _29  and  _30
REMARK   15  A    between atoms: _29  and  _32
REMARK   16  A    between atoms: _32  and  _33
REMARK   17  A    between atoms: _38  and  _40
REMARK   18  A    between atoms: _40  and  _41
REMARK   19  A    between atoms: _40  and  _43
REMARK   20  A    between atoms: _43  and  _44
REMARK   21  A    between atoms: _44  and  _45
REMARK   22  A    between atoms: _48  and  _50
REMARK   23  A    between atoms: _50  and  _51
REMARK   24  A    between atoms: _54  and  _56
REMARK   25  A    between atoms: _56  and  _57
REMARK   26  A    between atoms: _56  and  _59
REMARK   27  A    between atoms: _59  and  _60
REMARK   28  A    between atoms: _60  and  _61
REMARK   29  A    between atoms: _64  and  _66
REMARK   30  A    between atoms: _66  and  _67
REMARK   31  A    between atoms: _66  and  _69
REMARK   32  A    between atoms: _69  and  _70
REMARK   33  A    between atoms: _70  and  _71
REMARK   34  A    between atoms: _71  and  _72
REMARK   35  A    between atoms: _72  and  _73
REMARK   36  A    between atoms: _77  and  _79
REMARK   37  A    between atoms: _79  and  _80
REMARK   38  A    between atoms: _79  and  _82
REMARK   39  A    between atoms: _82  and  _83
REMARK   40  A    between atoms: _88  and  _89
REMARK   41  A    between atoms: _91  and  _93
REMARK   42  A    between atoms: _93  and  _94
REMARK   43  A    between atoms: _93  and  _96
REMARK   44  A    between atoms: _96  and  _97
REMARK   45  A    between atoms: _102  and  _104
REMARK   46  A    between atoms: _104  and  _105
REMARK   47  A    between atoms: _104  and  _107
REMARK   48  A    between atoms: _111  and  _112
REMARK   49  A    between atoms: _117  and  _119
REMARK   50  A    between atoms: _119  and  _120
REMARK   51  A    between atoms: _119  and  _122
REMARK   52  A    between atoms: _122  and  _123
REMARK   53  A    between atoms: _129  and  _131
REMARK   54  A    between atoms: _131  and  _132
REMARK   55  A    between atoms: _134  and  _136
REMARK   56  A    between atoms: _136  and  _137
REMARK   57  A    between atoms: _136  and  _139
REMARK   58  A    between atoms: _139  and  _140
REMARK   59  A    between atoms: _140  and  _141
REMARK   60  A    between atoms: _144  and  _146
REMARK   61  A    between atoms: _146  and  _147
REMARK   62  A    between atoms: _150  and  _152
REMARK   63  A    between atoms: _152  and  _153
REMARK   64  A    between atoms: _152  and  _155
REMARK   65  A    between atoms: _155  and  _156
REMARK   66  A    between atoms: _161  and  _163
REMARK   67  A    between atoms: _163  and  _164
REMARK   68  A    between atoms: _167  and  _169
REMARK   69  A    between atoms: _169  and  _170
REMARK   70  A    between atoms: _169  and  _172
REMARK   71  A    between atoms: _172  and  _173
REMARK   72  A    between atoms: _173  and  _174
REMARK   73  A    between atoms: _174  and  _175
REMARK   74  A    between atoms: _175  and  _176
REMARK   75  A    between atoms: _180  and  _182
REMARK   76  A    between atoms: _182  and  _183
REMARK   77  A    between atoms: _182  and  _185
REMARK   78  A    between atoms: _185  and  _186
REMARK   79  A    between atoms: _186  and  _187
REMARK   80  A    between atoms: _187  and  _188
REMARK   81  A    between atoms: _188  and  _189
REMARK   82  A    between atoms: _193  and  _195
REMARK   83  A    between atoms: _195  and  _196
REMARK   84  A    between atoms: _195  and  _198
REMARK   85  A    between atoms: _198  and  _199
REMARK   86  A    between atoms: _199  and  _200
REMARK   87  A    between atoms: _200  and  _201
REMARK   88  A    between atoms: _210  and  _212
REMARK   89  A    between atoms: _212  and  _213
REMARK   90  A    between atoms: _212  and  _215
REMARK   91  A    between atoms: _215  and  _216
REMARK   92  A    between atoms: _216  and  _217
REMARK   93  A    between atoms: _220  and  _222
REMARK   94  A    between atoms: _222  and  _223
REMARK   95  A    between atoms: _222  and  _225
REMARK   96  A    between atoms: _228  and  _230
REMARK   97  A    between atoms: _230  and  _231
REMARK   98  A    between atoms: _234  and  _236
REMARK   99  A    between atoms: _236  and  _237
REMARK  100  A    between atoms: _236  and  _239
REMARK  101  A    between atoms: _239  and  _240
REMARK  102  A    between atoms: _250  and  _252
REMARK  103  A    between atoms: _252  and  _253
REMARK  104  A    between atoms: _252  and  _255
REMARK  105  A    between atoms: _258  and  _260
REMARK  106  A    between atoms: _260  and  _261
REMARK  107  A    between atoms: _260  and  _263
REMARK  108  A    between atoms: _263  and  _264
REMARK  109  A    between atoms: _267  and  _269
REMARK  110  A    between atoms: _269  and  _270
REMARK  111  A    between atoms: _269  and  _272
REMARK  112  A    between atoms: _272  and  _273
REMARK  113  A    between atoms: _279  and  _281
REMARK  114  A    between atoms: _281  and  _282
REMARK  115  A    between atoms: _281  and  _284
REMARK  116  A    between atoms: _284  and  _285
REMARK  117  A    between atoms: _285  and  _286
REMARK  118  A    between atoms: _291  and  _293
REMARK  119  A    between atoms: _293  and  _294
REMARK  120  A    between atoms: _293  and  _296
REMARK  121  A    between atoms: _299  and  _301
REMARK  122  A    between atoms: _301  and  _302
REMARK  123  A    between atoms: _301  and  _304
REMARK  124  A    between atoms: _304  and  _305
REMARK  125  A    between atoms: _308  and  _310
REMARK  126  A    between atoms: _310  and  _311
REMARK  127  A    between atoms: _310  and  _313
REMARK  128  A    between atoms: _313  and  _314
REMARK  129  A    between atoms: _317  and  _319
REMARK  130  A    between atoms: _319  and  _320
REMARK  131  A    between atoms: _319  and  _322
REMARK  132  A    between atoms: _322  and  _323
REMARK  133  A    between atoms: _326  and  _328
REMARK  134  A    between atoms: _328  and  _329
REMARK  135  A    between atoms: _328  and  _331
REMARK  136  A    between atoms: _331  and  _332
REMARK  137  A    between atoms: _335  and  _337
REMARK  138  A    between atoms: _337  and  _338
REMARK  139  A    between atoms: _337  and  _340
REMARK  140  A    between atoms: _340  and  _341
REMARK  141  A    between atoms: _341  and  _342
REMARK  142  A    between atoms: _342  and  _343
REMARK  143  A    between atoms: _352  and  _354
REMARK  144  A    between atoms: _354  and  _355
REMARK  145  A    between atoms: _354  and  _357
REMARK  146  A    between atoms: _357  and  _358
REMARK  147  A    between atoms: _361  and  _363
REMARK  148  A    between atoms: _363  and  _364
REMARK  149  A    between atoms: _363  and  _366
REMARK  150  A    between atoms: _366  and  _367
REMARK  151  A    between atoms: _371  and  _372
REMARK  152  A    between atoms: _377  and  _379
REMARK  153  A    between atoms: _379  and  _380
REMARK  154  A    between atoms: _379  and  _382
REMARK  155  A    between atoms: _382  and  _383
REMARK  156  A    between atoms: _388  and  _389
REMARK  157  A    between atoms: _391  and  _393
REMARK  158  A    between atoms: _393  and  _394
REMARK  159  A    between atoms: _393  and  _396
REMARK  160  A    between atoms: _396  and  _397
REMARK  161  A    between atoms: _407  and  _409
REMARK  162  A    between atoms: _409  and  _410
REMARK  163  A    between atoms: _409  and  _412
REMARK  164  A    between atoms: _412  and  _413
REMARK  165  A    between atoms: _419  and  _421
REMARK  166  A    between atoms: _421  and  _422
REMARK  167  A    between atoms: _421  and  _424
REMARK  168  A    between atoms: _424  and  _425
REMARK  169  A    between atoms: _428  and  _430
REMARK  170  A    between atoms: _430  and  _431
REMARK  171  A    between atoms: _430  and  _433
REMARK  172  A    between atoms: _433  and  _434
REMARK  173  A    between atoms: _444  and  _446
REMARK  174  A    between atoms: _446  and  _447
REMARK  175  A    between atoms: _446  and  _449
REMARK  176  A    between atoms: _449  and  _450
REMARK  177  A    between atoms: _450  and  _451
REMARK  178  A    between atoms: _453  and  _455
REMARK  179  A    between atoms: _455  and  _456
REMARK  180  A    between atoms: _455  and  _458
REMARK  181  A    between atoms: _458  and  _459
REMARK  182  A    between atoms: _464  and  _466
REMARK  183  A    between atoms: _466  and  _467
REMARK  184  A    between atoms: _470  and  _471
REMARK  185  A    between atoms: _476  and  _478
REMARK  186  A    between atoms: _478  and  _479
REMARK  187  A    between atoms: _478  and  _481
REMARK  188  A    between atoms: _481  and  _482
REMARK  189  A    between atoms: _492  and  _494
REMARK  190  A    between atoms: _494  and  _495
REMARK  191  A    between atoms: _499  and  _500
REMARK  192  A    between atoms: _505  and  _507
REMARK  193  A    between atoms: _507  and  _508
REMARK  194  A    between atoms: _507  and  _510
REMARK  195  A    between atoms: _510  and  _511
REMARK  196  A    between atoms: _511  and  _512
REMARK  197  A    between atoms: _517  and  _519
REMARK  198  A    between atoms: _519  and  _520
REMARK  199  A    between atoms: _522  and  _524
REMARK  200  A    between atoms: _524  and  _525
REMARK  201  A    between atoms: _527  and  _529
REMARK  202  A    between atoms: _529  and  _530
REMARK  203  A    between atoms: _529  and  _532
REMARK  204  A    between atoms: _532  and  _533
REMARK  205  A    between atoms: _543  and  _545
REMARK  206  A    between atoms: _545  and  _546
REMARK  207  A    between atoms: _545  and  _548
REMARK  208  A    between atoms: _548  and  _549
REMARK  209  A    between atoms: _552  and  _554
REMARK  210  A    between atoms: _554  and  _555
REMARK  211  A    between atoms: _554  and  _557
REMARK  212  A    between atoms: _557  and  _558
REMARK  213  A    between atoms: _561  and  _563
REMARK  214  A    between atoms: _563  and  _564
REMARK  215  A    between atoms: _563  and  _566
REMARK  216  A    between atoms: _566  and  _567
REMARK  217  A    between atoms: _567  and  _568
REMARK  218  A    between atoms: _568  and  _569
REMARK  219  A    between atoms: _578  and  _580
REMARK  220  A    between atoms: _580  and  _581
REMARK  221  A    between atoms: _580  and  _583
REMARK  222  A    between atoms: _583  and  _584
REMARK  223  A    between atoms: _594  and  _596
REMARK  224  A    between atoms: _596  and  _597
REMARK  225  A    between atoms: _599  and  _601
REMARK  226  A    between atoms: _601  and  _602
REMARK  227  A    between atoms: _601  and  _604
REMARK  228  A    between atoms: _604  and  _605
REMARK  229  A    between atoms: _610  and  _612
REMARK  230  A    between atoms: _612  and  _613
REMARK  231  A    between atoms: _616  and  _618
REMARK  232  A    between atoms: _618  and  _619
REMARK  233  A    between atoms: _618  and  _621
REMARK  234  A    between atoms: _621  and  _622
REMARK  235  A    between atoms: _625  and  _627
REMARK  236  A    between atoms: _627  and  _628
REMARK  237  A    between atoms: _627  and  _630
REMARK  238  A    between atoms: _630  and  _631
REMARK  239  A    between atoms: _637  and  _639
REMARK  240  A    between atoms: _639  and  _640
REMARK  241  A    between atoms: _639  and  _642
REMARK  242  A    between atoms: _642  and  _643
REMARK  243  A    between atoms: _643  and  _644
REMARK  244  A    between atoms: _647  and  _649
REMARK  245  A    between atoms: _649  and  _650
REMARK  246  A    between atoms: _649  and  _652
REMARK  247  A    between atoms: _652  and  _653
REMARK  248  A    between atoms: _653  and  _654
REMARK  249  A    between atoms: _654  and  _655
REMARK                            x       y       z     vdW  Elec       q    Type
REMARK                         _______ _______ _______ _____ _____    ______ ____
ROOT
ATOM      1  CA  LEU A   1       2.318   5.771  18.439  0.00  0.00    +0.133 C 
ENDROOT
BRANCH   1   2
ATOM      2  N   LEU A   1       2.042   7.031  17.723  0.00  0.00    -0.239 NA
ATOM      3  H   LEU A   1       2.183   7.082  16.694  0.00  0.00    +0.142 HD
ENDBRANCH   1   2
BRANCH   1   4
ATOM      4  C   LEU A   1       3.563   5.916  19.274  0.00  0.00    +0.224 C 
ATOM      5  O   LEU A   1       4.457   6.716  18.928  0.00  0.00    -0.287 OA
ENDBRANCH   1   4
BRANCH   1   6
ATOM      6  CB  LEU A   1       2.406   4.576  17.475  0.00  0.00    +0.025 C 
BRANCH   6   7
ATOM      7  CG  LEU A   1       1.264   4.382  16.504  0.00  0.00    +0.002 C 
ATOM      8  CD2 LEU A   1      -0.050   4.265  17.288  0.00  0.00    +0.000 C 
ATOM      9  CD1 LEU A   1       1.582   3.083  15.746  0.00  0.00    +0.000 C 
ENDBRANCH   6   7
ENDBRANCH   1   6
TORSDOF 4
REMARK  Name = ../refined-set-2016/3jzj/3jzj_pocket.pdb
REMARK  249 active torsions:
REMARK  status: ('A' for Active; 'I' for Inactive)
REMARK    1  A    between atoms: _1  and  _3
REMARK    2  A    between atoms: _3  and  _4
REMARK    3  A    between atoms: _3  and  _6
REMARK    4  A    between atoms: _6  and  _7
REMARK    5  A    between atoms: _10  and  _12
REMARK    6  A    between atoms: _12  and  _13
REMARK    7  A    between atoms: _12  and  _15
REMARK    8  A    between atoms: _15  and  _16
REMARK    9  A    between atoms: _19  and  _21
REMARK   10  A    between atoms: _21  and  _22
REMARK   11  A    between atoms: _21  and  _24
REMARK   12  A    between atoms: _24  and  _25
REMARK   13  A    between atoms: _27  and  _29
REMARK   14  A    between atoms: _29  and  _30
REMARK   15  A    between atoms: _29  and  _32
REMARK   16  A    between atoms: _32  and  _33
REMARK   17  A    between atoms: _38  and  _40
REMARK   18  A    between atoms: _40  and  _41
REMARK   19  A    between atoms: _40  and  _43
REMARK   20  A    between atoms: _43  and  _44
REMARK   21  A    between atoms: _44  and  _45
REMARK   22  A    between atoms: _48  and  _50
REMARK   23  A    between atoms: _50  and  _51
REMARK   24  A    between atoms: _54  and  _56
REMARK   25  A    between atoms: _56  and  _57
REMARK   26  A    between atoms: _56  and  _59
REMARK   27  A    between atoms: _59  and  _60
REMARK   28  A    between atoms: _60  and  _61
REMARK   29  A    between atoms: _64  and  _66
REMARK   30  A    between atoms: _66  and  _67
REMARK   31  A    between atoms: _66  and  _69
REMARK   32  A    between atoms: _69  and  _70
REMARK   33  A    between atoms: _70  and  _71
REMARK   34  A    between atoms: _71  and  _72
REMARK   35  A    between atoms: _72  and  _73
REMARK   36  A    between atoms: _77  and  _79
REMARK   37  A    between atoms: _79  and  _80
REMARK   38  A    between atoms: _79  and  _82
REMARK   39  A    between atoms: _82  and  _83
REMARK   40  A    between atoms: _88  and  _89
REMARK   41  A    between atoms: _91  and  _93
REMARK   42  A    between atoms: _93  and  _94
REMARK   43  A    between atoms: _93  and  _96
REMARK   44  A    between atoms: _96  and  _97
REMARK   45  A    between atoms: _102  and  _104
REMARK   46  A    between atoms: _104  and  _105
REMARK   47  A    between atoms: _104  and  _107
REMARK   48  A    between atoms: _111  and  _112
REMARK   49  A    between atoms: _117  and  _119
REMARK   50  A    between atoms: _119  and  _120
REMARK   51  A    between atoms: _119  and  _122
REMARK   52  A    between atoms: _122  and  _123
REMARK   53  A    between atoms: _129  and  _131
REMARK   54  A    between atoms: _131  and  _132
REMARK   55  A    between atoms: _134  and  _136
REMARK   56  A    between atoms: _136  and  _137
REMARK   57  A    between atoms: _136  and  _139
REMARK   58  A    between atoms: _139  and  _140
REMARK   59  A    between atoms: _140  and  _141
REMARK   60  A    between atoms: _144  and  _146
REMARK   61  A    between atoms: _146  and  _147
REMARK   62  A    between atoms: _150  and  _152
REMARK   63  A    between atoms: _152  and  _153
REMARK   64  A    between atoms: _152  and  _155
REMARK   65  A    between atoms: _155  and  _156
REMARK   66  A    between atoms: _161  and  _163
REMARK   67  A    between atoms: _163  and  _164
REMARK   68  A    between atoms: _167  and  _169
REMARK   69  A    between atoms: _169  and  _170
REMARK   70  A    between atoms: _169  and  _172
REMARK   71  A    between atoms: _172  and  _173
REMARK   72  A    between atoms: _173  and  _174
REMARK   73  A    between atoms: _174  and  _175
REMARK   74  A    between atoms: _175  and  _176
REMARK   75  A    between atoms: _180  and  _182
REMARK   76  A    between atoms: _182  and  _183
REMARK   77  A    between atoms: _182  and  _185
REMARK   78  A    between atoms: _185  and  _186
REMARK   79  A    between atoms: _186  and  _187
REMARK   80  A    between atoms: _187  and  _188
REMARK   81  A    between atoms: _188  and  _189
REMARK   82  A    between atoms: _193  and  _195
REMARK   83  A    between atoms: _195  and  _196
REMARK   84  A    between atoms: _195  and  _198
REMARK   85  A    between atoms: _198  and  _199
REMARK   86  A    between atoms: _199  and  _200
REMARK   87  A    between atoms: _200  and  _201
REMARK   88  A    between atoms: _210  and  _212
REMARK   89  A    between atoms: _212  and  _213
REMARK   90  A    between atoms: _212  and  _215
REMARK   91  A    between atoms: _215  and  _216
REMARK   92  A    between atoms: _216  and  _217
REMARK   93  A    between atoms: _220  and  _222
REMARK   94  A    between atoms: _222  and  _223
REMARK   95  A    between atoms: _222  and  _225
REMARK   96  A    between atoms: _228  and  _230
REMARK   97  A    between atoms: _230  and  _231
REMARK   98  A    between atoms: _234  and  _236
REMARK   99  A    between atoms: _236  and  _237
REMARK  100  A    between atoms: _236  and  _239
REMARK  101  A    between atoms: _239  and  _240
REMARK  102  A    between atoms: _250  and  _252
REMARK  103  A    between atoms: _252  and  _253
REMARK  104  A    between atoms: _252  and  _255
REMARK  105  A    between atoms: _258  and  _260
REMARK  106  A    between atoms: _260  and  _261
REMARK  107  A    between atoms: _260  and  _263
REMARK  108  A    between atoms: _263  and  _264
REMARK  109  A    between atoms: _267  and  _269
REMARK  110  A    between atoms: _269  and  _270
REMARK  111  A    between atoms: _269  and  _272
REMARK  112  A    between atoms: _272  and  _273
REMARK  113  A    between atoms: _279  and  _281
REMARK  114  A    between atoms: _281  and  _282
REMARK  115  A    between atoms: _281  and  _284
REMARK  116  A    between atoms: _284  and  _285
REMARK  117  A    between atoms: _285  and  _286
REMARK  118  A    between atoms: _291  and  _293
REMARK  119  A    between atoms: _293  and  _294
REMARK  120  A    between atoms: _293  and  _296
REMARK  121  A    between atoms: _299  and  _301
REMARK  122  A    between atoms: _301  and  _302
REMARK  123  A    between atoms: _301  and  _304
REMARK  124  A    between atoms: _304  and  _305
REMARK  125  A    between atoms: _308  and  _310
REMARK  126  A    between atoms: _310  and  _311
REMARK  127  A    between atoms: _310  and  _313
REMARK  128  A    between atoms: _313  and  _314
REMARK  129  A    between atoms: _317  and  _319
REMARK  130  A    between atoms: _319  and  _320
REMARK  131  A    between atoms: _319  and  _322
REMARK  132  A    between atoms: _322  and  _323
REMARK  133  A    between atoms: _326  and  _328
REMARK  134  A    between atoms: _328  and  _329
REMARK  135  A    between atoms: _328  and  _331
REMARK  136  A    between atoms: _331  and  _332
REMARK  137  A    between atoms: _335  and  _337
REMARK  138  A    between atoms: _337  and  _338
REMARK  139  A    between atoms: _337  and  _340
REMARK  140  A    between atoms: _340  and  _341
REMARK  141  A    between atoms: _341  and  _342
REMARK  142  A    between atoms: _342  and  _343
REMARK  143  A    between atoms: _352  and  _354
REMARK  144  A    between atoms: _354  and  _355
REMARK  145  A    between atoms: _354  and  _357
REMARK  146  A    between atoms: _357  and  _358
REMARK  147  A    between atoms: _361  and  _363
REMARK  148  A    between atoms: _363  and  _364
REMARK  149  A    between atoms: _363  and  _366
REMARK  150  A    between atoms: _366  and  _367
REMARK  151  A    between atoms: _371  and  _372
REMARK  152  A    between atoms: _377  and  _379
REMARK  153  A    between atoms: _379  and  _380
REMARK  154  A    between atoms: _379  and  _382
REMARK  155  A    between atoms: _382  and  _383
REMARK  156  A    between atoms: _388  and  _389
REMARK  157  A    between atoms: _391  and  _393
REMARK  158  A    between atoms: _393  and  _394
REMARK  159  A    between atoms: _393  and  _396
REMARK  160  A    between atoms: _396  and  _397
REMARK  161  A    between atoms: _407  and  _409
REMARK  162  A    between atoms: _409  and  _410
REMARK  163  A    between atoms: _409  and  _412
REMARK  164  A    between atoms: _412  and  _413
REMARK  165  A    between atoms: _419  and  _421
REMARK  166  A    between atoms: _421  and  _422
REMARK  167  A    between atoms: _421  and  _424
REMARK  168  A    between atoms: _424  and  _425
REMARK  169  A    between atoms: _428  and  _430
REMARK  170  A    between atoms: _430  and  _431
REMARK  171  A    between atoms: _430  and  _433
REMARK  172  A    between atoms: _433  and  _434
REMARK  173  A    between atoms: _444  and  _446
REMARK  174  A    between atoms: _446  and  _447
REMARK  175  A    between atoms: _446  and  _449
REMARK  176  A    between atoms: _449  and  _450
REMARK  177  A    between atoms: _450  and  _451
REMARK  178  A    between atoms: _453  and  _455
REMARK  179  A    between atoms: _455  and  _456
REMARK  180  A    between atoms: _455  and  _458
REMARK  181  A    between atoms: _458  and  _459
REMARK  182  A    between atoms: _464  and  _466
REMARK  183  A    between atoms: _466  and  _467
REMARK  184  A    between atoms: _470  and  _471
REMARK  185  A    between atoms: _476  and  _478
REMARK  186  A    between atoms: _478  and  _479
REMARK  187  A    between atoms: _478  and  _481
REMARK  188  A    between atoms: _481  and  _482
REMARK  189  A    between atoms: _492  and  _494
REMARK  190  A    between atoms: _494  and  _495
REMARK  191  A    between atoms: _499  and  _500
REMARK  192  A    between atoms: _505  and  _507
REMARK  193  A    between atoms: _507  and  _508
REMARK  194  A    between atoms: _507  and  _510
REMARK  195  A    between atoms: _510  and  _511
REMARK  196  A    between atoms: _511  and  _512
REMARK  197  A    between atoms: _517  and  _519
REMARK  198  A    between atoms: _519  and  _520
REMARK  199  A    between atoms: _522  and  _524
REMARK  200  A    between atoms: _524  and  _525
REMARK  201  A    between atoms: _527  and  _529
REMARK  202  A    between atoms: _529  and  _530
REMARK  203  A    between atoms: _529  and  _532
REMARK  204  A    between atoms: _532  and  _533
REMARK  205  A    between atoms: _543  and  _545
REMARK  206  A    between atoms: _545  and  _546
REMARK  207  A    between atoms: _545  and  _548
REMARK  208  A    between atoms: _548  and  _549
REMARK  209  A    between atoms: _552  and  _554
REMARK  210  A    between atoms: _554  and  _555
REMARK  211  A    between atoms: _554  and  _557
REMARK  212  A    between atoms: _557  and  _558
REMARK  213  A    between atoms: _561  and  _563
REMARK  214  A    between atoms: _563  and  _564
REMARK  215  A    between atoms: _563  and  _566
REMARK  216  A    between atoms: _566  and  _567
REMARK  217  A    between atoms: _567  and  _568
REMARK  218  A    between atoms: _568  and  _569
REMARK  219  A    between atoms: _578  and  _580
REMARK  220  A    between atoms: _580  and  _581
REMARK  221  A    between atoms: _580  and  _583
REMARK  222  A    between atoms: _583  and  _584
REMARK  223  A    between atoms: _594  and  _596
REMARK  224  A    between atoms: _596  and  _597
REMARK  225  A    between atoms: _599  and  _601
REMARK  226  A    between atoms: _601  and  _602
REMARK  227  A    between atoms: _601  and  _604
REMARK  228  A    between atoms: _604  and  _605
REMARK  229  A    between atoms: _610  and  _612
REMARK  230  A    between atoms: _612  and  _613
REMARK  231  A    between atoms: _616  and  _618
REMARK  232  A    between atoms: _618  and  _619
REMARK  233  A    between atoms: _618  and  _621
REMARK  234  A    between atoms: _621  and  _622
REMARK  235  A    between atoms: _625  and  _627
REMARK  236  A    between atoms: _627  and  _628
REMARK  237  A    between atoms: _627  and  _630
REMARK  238  A    between atoms: _630  and  _631
REMARK  239  A    between atoms: _637  and  _639
REMARK  240  A    between atoms: _639  and  _640
REMARK  241  A    between atoms: _639  and  _642
REMARK  242  A    between atoms: _642  and  _643
REMARK  243  A    between atoms: _643  and  _644
REMARK  244  A    between atoms: _647  and  _649
REMARK  245  A    between atoms: _649  and  _650
REMARK  246  A    between atoms: _649  and  _652
REMARK  247  A    between atoms: _652  and  _653
REMARK  248  A    between atoms: _653  and  _654
REMARK  249  A    between atoms: _654  and  _655
REMARK                            x       y       z     vdW  Elec       q    Type
REMARK                         _______ _______ _______ _____ _____    ______ ____
ROOT
ATOM      1  NE  ARG A   1      -0.152  -8.551  28.478  0.00  0.00    -0.265 N 
ATOM      2  HE  ARG A   1       0.200  -7.757  29.050  0.00  0.00    +0.259 HD
ATOM      3  CZ  ARG A   1      -0.888  -8.284  27.406  0.00  0.00    +0.342 C 
ATOM      4  NH2 ARG A   1      -1.123  -7.012  27.043  0.00  0.00    -0.292 N 
ATOM      5 HH21 ARG A   1      -0.727  -6.230  27.603  0.00  0.00    +0.255 HD
ATOM      6 HH22 ARG A   1      -1.700  -6.809  26.202  0.00  0.00    +0.255 HD
ATOM      7  NH1 ARG A   1      -1.337  -9.267  26.662  0.00  0.00    -0.292 N 
ATOM      8 HH11 ARG A   1      -1.116 -10.252  26.913  0.00  0.00    +0.255 HD
ATOM      9 HH12 ARG A   1      -1.914  -9.061  25.821  0.00  0.00    +0.255 HD
ENDROOT
BRANCH   1  10
ATOM     10  CD  ARG A   1       0.188  -9.922  28.893  0.00  0.00    +0.174 C 
BRANCH  10  11
ATOM     11  CG  ARG A   1       1.170  -9.910  30.017  0.00  0.00    +0.045 C 
BRANCH  11  12
ATOM     12  CB  ARG A   1       0.434  -9.656  31.305  0.00  0.00    +0.029 C 
BRANCH  12  13
ATOM     13  CA  ARG A   1       1.355  -9.333  32.475  0.00  0.00    +0.133 C 
BRANCH  13  14
ATOM     14  N   ARG A   1       1.860  -7.982  32.336  0.00  0.00    -0.239 NA
ATOM     15  H   ARG A   1       1.866  -7.537  31.396  0.00  0.00    +0.142 HD
ENDBRANCH  13  14
BRANCH  13  16
ATOM     16  C   ARG A   1       2.450 -10.384  32.513  0.00  0.00    +0.224 C 
ATOM     17  O   ARG A   1       3.613 -10.099  32.188  0.00  0.00    -0.287 OA
ENDBRANCH  13  16
ENDBRANCH  12  13
ENDBRANCH  11  12
ENDBRANCH  10  11
ENDBRANCH   1  10
TORSDOF 6
REMARK  Name = ../refined-set-2016/3jzj/3jzj_pocket.pdb
REMARK  249 active torsions:
REMARK  status: ('A' for Active; 'I' for Inactive)
REMARK    1  A    between atoms: _1  and  _3
REMARK    2  A    between atoms: _3  and  _4
REMARK    3  A    between atoms: _3  and  _6
REMARK    4  A    between atoms: _6  and  _7
REMARK    5  A    between atoms: _10  and  _12
REMARK    6  A    between atoms: _12  and  _13
REMARK    7  A    between atoms: _12  and  _15
REMARK    8  A    between atoms: _15  and  _16
REMARK    9  A    between atoms: _19  and  _21
REMARK   10  A    between atoms: _21  and  _22
REMARK   11  A    between atoms: _21  and  _24
REMARK   12  A    between atoms: _24  and  _25
REMARK   13  A    between atoms: _27  and  _29
REMARK   14  A    between atoms: _29  and  _30
REMARK   15  A    between atoms: _29  and  _32
REMARK   16  A    between atoms: _32  and  _33
REMARK   17  A    between atoms: _38  and  _40
REMARK   18  A    between atoms: _40  and  _41
REMARK   19  A    between atoms: _40  and  _43
REMARK   20  A    between atoms: _43  and  _44
REMARK   21  A    between atoms: _44  and  _45
REMARK   22  A    between atoms: _48  and  _50
REMARK   23  A    between atoms: _50  and  _51
REMARK   24  A    between atoms: _54  and  _56
REMARK   25  A    between atoms: _56  and  _57
REMARK   26  A    between atoms: _56  and  _59
REMARK   27  A    between atoms: _59  and  _60
REMARK   28  A    between atoms: _60  and  _61
REMARK   29  A    between atoms: _64  and  _66
REMARK   30  A    between atoms: _66  and  _67
REMARK   31  A    between atoms: _66  and  _69
REMARK   32  A    between atoms: _69  and  _70
REMARK   33  A    between atoms: _70  and  _71
REMARK   34  A    between atoms: _71  and  _72
REMARK   35  A    between atoms: _72  and  _73
REMARK   36  A    between atoms: _77  and  _79
REMARK   37  A    between atoms: _79  and  _80
REMARK   38  A    between atoms: _79  and  _82
REMARK   39  A    between atoms: _82  and  _83
REMARK   40  A    between atoms: _88  and  _89
REMARK   41  A    between atoms: _91  and  _93
REMARK   42  A    between atoms: _93  and  _94
REMARK   43  A    between atoms: _93  and  _96
REMARK   44  A    between atoms: _96  and  _97
REMARK   45  A    between atoms: _102  and  _104
REMARK   46  A    between atoms: _104  and  _105
REMARK   47  A    between atoms: _104  and  _107
REMARK   48  A    between atoms: _111  and  _112
REMARK   49  A    between atoms: _117  and  _119
REMARK   50  A    between atoms: _119  and  _120
REMARK   51  A    between atoms: _119  and  _122
REMARK   52  A    between atoms: _122  and  _123
REMARK   53  A    between atoms: _129  and  _131
REMARK   54  A    between atoms: _131  and  _132
REMARK   55  A    between atoms: _134  and  _136
REMARK   56  A    between atoms: _136  and  _137
REMARK   57  A    between atoms: _136  and  _139
REMARK   58  A    between atoms: _139  and  _140
REMARK   59  A    between atoms: _140  and  _141
REMARK   60  A    between atoms: _144  and  _146
REMARK   61  A    between atoms: _146  and  _147
REMARK   62  A    between atoms: _150  and  _152
REMARK   63  A    between atoms: _152  and  _153
REMARK   64  A    between atoms: _152  and  _155
REMARK   65  A    between atoms: _155  and  _156
REMARK   66  A    between atoms: _161  and  _163
REMARK   67  A    between atoms: _163  and  _164
REMARK   68  A    between atoms: _167  and  _169
REMARK   69  A    between atoms: _169  and  _170
REMARK   70  A    between atoms: _169  and  _172
REMARK   71  A    between atoms: _172  and  _173
REMARK   72  A    between atoms: _173  and  _174
REMARK   73  A    between atoms: _174  and  _175
REMARK   74  A    between atoms: _175  and  _176
REMARK   75  A    between atoms: _180  and  _182
REMARK   76  A    between atoms: _182  and  _183
REMARK   77  A    between atoms: _182  and  _185
REMARK   78  A    between atoms: _185  and  _186
REMARK   79  A    between atoms: _186  and  _187
REMARK   80  A    between atoms: _187  and  _188
REMARK   81  A    between atoms: _188  and  _189
REMARK   82  A    between atoms: _193  and  _195
REMARK   83  A    between atoms: _195  and  _196
REMARK   84  A    between atoms: _195  and  _198
REMARK   85  A    between atoms: _198  and  _199
REMARK   86  A    between atoms: _199  and  _200
REMARK   87  A    between atoms: _200  and  _201
REMARK   88  A    between atoms: _210  and  _212
REMARK   89  A    between atoms: _212  and  _213
REMARK   90  A    between atoms: _212  and  _215
REMARK   91  A    between atoms: _215  and  _216
REMARK   92  A    between atoms: _216  and  _217
REMARK   93  A    between atoms: _220  and  _222
REMARK   94  A    between atoms: _222  and  _223
REMARK   95  A    between atoms: _222  and  _225
REMARK   96  A    between atoms: _228  and  _230
REMARK   97  A    between atoms: _230  and  _231
REMARK   98  A    between atoms: _234  and  _236
REMARK   99  A    between atoms: _236  and  _237
REMARK  100  A    between atoms: _236  and  _239
REMARK  101  A    between atoms: _239  and  _240
REMARK  102  A    between atoms: _250  and  _252
REMARK  103  A    between atoms: _252  and  _253
REMARK  104  A    between atoms: _252  and  _255
REMARK  105  A    between atoms: _258  and  _260
REMARK  106  A    between atoms: _260  and  _261
REMARK  107  A    between atoms: _260  and  _263
REMARK  108  A    between atoms: _263  and  _264
REMARK  109  A    between atoms: _267  and  _269
REMARK  110  A    between atoms: _269  and  _270
REMARK  111  A    between atoms: _269  and  _272
REMARK  112  A    between atoms: _272  and  _273
REMARK  113  A    between atoms: _279  and  _281
REMARK  114  A    between atoms: _281  and  _282
REMARK  115  A    between atoms: _281  and  _284
REMARK  116  A    between atoms: _284  and  _285
REMARK  117  A    between atoms: _285  and  _286
REMARK  118  A    between atoms: _291  and  _293
REMARK  119  A    between atoms: _293  and  _294
REMARK  120  A    between atoms: _293  and  _296
REMARK  121  A    between atoms: _299  and  _301
REMARK  122  A    between atoms: _301  and  _302
REMARK  123  A    between atoms: _301  and  _304
REMARK  124  A    between atoms: _304  and  _305
REMARK  125  A    between atoms: _308  and  _310
REMARK  126  A    between atoms: _310  and  _311
REMARK  127  A    between atoms: _310  and  _313
REMARK  128  A    between atoms: _313  and  _314
REMARK  129  A    between atoms: _317  and  _319
REMARK  130  A    between atoms: _319  and  _320
REMARK  131  A    between atoms: _319  and  _322
REMARK  132  A    between atoms: _322  and  _323
REMARK  133  A    between atoms: _326  and  _328
REMARK  134  A    between atoms: _328  and  _329
REMARK  135  A    between atoms: _328  and  _331
REMARK  136  A    between atoms: _331  and  _332
REMARK  137  A    between atoms: _335  and  _337
REMARK  138  A    between atoms: _337  and  _338
REMARK  139  A    between atoms: _337  and  _340
REMARK  140  A    between atoms: _340  and  _341
REMARK  141  A    between atoms: _341  and  _342
REMARK  142  A    between atoms: _342  and  _343
REMARK  143  A    between atoms: _352  and  _354
REMARK  144  A    between atoms: _354  and  _355
REMARK  145  A    between atoms: _354  and  _357
REMARK  146  A    between atoms: _357  and  _358
REMARK  147  A    between atoms: _361  and  _363
REMARK  148  A    between atoms: _363  and  _364
REMARK  149  A    between atoms: _363  and  _366
REMARK  150  A    between atoms: _366  and  _367
REMARK  151  A    between atoms: _371  and  _372
REMARK  152  A    between atoms: _377  and  _379
REMARK  153  A    between atoms: _379  and  _380
REMARK  154  A    between atoms: _379  and  _382
REMARK  155  A    between atoms: _382  and  _383
REMARK  156  A    between atoms: _388  and  _389
REMARK  157  A    between atoms: _391  and  _393
REMARK  158  A    between atoms: _393  and  _394
REMARK  159  A    between atoms: _393  and  _396
REMARK  160  A    between atoms: _396  and  _397
REMARK  161  A    between atoms: _407  and  _409
REMARK  162  A    between atoms: _409  and  _410
REMARK  163  A    between atoms: _409  and  _412
REMARK  164  A    between atoms: _412  and  _413
REMARK  165  A    between atoms: _419  and  _421
REMARK  166  A    between atoms: _421  and  _422
REMARK  167  A    between atoms: _421  and  _424
REMARK  168  A    between atoms: _424  and  _425
REMARK  169  A    between atoms: _428  and  _430
REMARK  170  A    between atoms: _430  and  _431
REMARK  171  A    between atoms: _430  and  _433
REMARK  172  A    between atoms: _433  and  _434
REMARK  173  A    between atoms: _444  and  _446
REMARK  174  A    between atoms: _446  and  _447
REMARK  175  A    between atoms: _446  and  _449
REMARK  176  A    between atoms: _449  and  _450
REMARK  177  A    between atoms: _450  and  _451
REMARK  178  A    between atoms: _453  and  _455
REMARK  179  A    between atoms: _455  and  _456
REMARK  180  A    between atoms: _455  and  _458
REMARK  181  A    between atoms: _458  and  _459
REMARK  182  A    between atoms: _464  and  _466
REMARK  183  A    between atoms: _466  and  _467
REMARK  184  A    between atoms: _470  and  _471
REMARK  185  A    between atoms: _476  and  _478
REMARK  186  A    between atoms: _478  and  _479
REMARK  187  A    between atoms: _478  and  _481
REMARK  188  A    between atoms: _481  and  _482
REMARK  189  A    between atoms: _492  and  _494
REMARK  190  A    between atoms: _494  and  _495
REMARK  191  A    between atoms: _499  and  _500
REMARK  192  A    between atoms: _505  and  _507
REMARK  193  A    between atoms: _507  and  _508
REMARK  194  A    between atoms: _507  and  _510
REMARK  195  A    between atoms: _510  and  _511
REMARK  196  A    between atoms: _511  and  _512
REMARK  197  A    between atoms: _517  and  _519
REMARK  198  A    between atoms: _519  and  _520
REMARK  199  A    between atoms: _522  and  _524
REMARK  200  A    between atoms: _524  and  _525
REMARK  201  A    between atoms: _527  and  _529
REMARK  202  A    between atoms: _529  and  _530
REMARK  203  A    between atoms: _529  and  _532
REMARK  204  A    between atoms: _532  and  _533
REMARK  205  A    between atoms: _543  and  _545
REMARK  206  A    between atoms: _545  and  _546
REMARK  207  A    between atoms: _545  and  _548
REMARK  208  A    between atoms: _548  and  _549
REMARK  209  A    between atoms: _552  and  _554
REMARK  210  A    between atoms: _554  and  _555
REMARK  211  A    between atoms: _554  and  _557
REMARK  212  A    between atoms: _557  and  _558
REMARK  213  A    between atoms: _561  and  _563
REMARK  214  A    between atoms: _563  and  _564
REMARK  215  A    between atoms: _563  and  _566
REMARK  216  A    between atoms: _566  and  _567
REMARK  217  A    between atoms: _567  and  _568
REMARK  218  A    between atoms: _568  and  _569
REMARK  219  A    between atoms: _578  and  _580
REMARK  220  A    between atoms: _580  and  _581
REMARK  221  A    between atoms: _580  and  _583
REMARK  222  A    between atoms: _583  and  _584
REMARK  223  A    between atoms: _594  and  _596
REMARK  224  A    between atoms: _596  and  _597
REMARK  225  A    between atoms: _599  and  _601
REMARK  226  A    between atoms: _601  and  _602
REMARK  227  A    between atoms: _601  and  _604
REMARK  228  A    between atoms: _604  and  _605
REMARK  229  A    between atoms: _610  and  _612
REMARK  230  A    between atoms: _612  and  _613
REMARK  231  A    between atoms: _616  and  _618
REMARK  232  A    between atoms: _618  and  _619
REMARK  233  A    between atoms: _618  and  _621
REMARK  234  A    between atoms: _621  and  _622
REMARK  235  A    between atoms: _625  and  _627
REMARK  236  A    between atoms: _627  and  _628
REMARK  237  A    between atoms: _627  and  _630
REMARK  238  A    between atoms: _630  and  _631
REMARK  239  A    between atoms: _637  and  _639
REMARK  240  A    between atoms: _639  and  _640
REMARK  241  A    between atoms: _639  and  _642
REMARK  242  A    between atoms: _642  and  _643
REMARK  243  A    between atoms: _643  and  _644
REMARK  244  A    between atoms: _647  and  _649
REMARK  245  A    between atoms: _649  and  _650
REMARK  246  A    between atoms: _649  and  _652
REMARK  247  A    between atoms: _652  and  _653
REMARK  248  A    between atoms: _653  and  _654
REMARK  249  A    between atoms: _654  and  _655
REMARK                            x       y       z     vdW  Elec       q    Type
REMARK                         _______ _______ _______ _____ _____    ______ ____
ROOT
ATOM      1  CG  TRP A   1       5.880 -11.054  29.197  0.00  0.00    -0.002 A 
ATOM      2  CD1 TRP A   1       6.567 -10.276  30.071  0.00  0.00    +0.068 A 
ATOM      3  NE1 TRP A   1       6.129  -8.977  29.996  0.00  0.00    -0.352 N 
ATOM      4  HE1 TRP A   1       6.504  -8.182  30.552  0.00  0.00    +0.166 HD
ATOM      5  CE2 TRP A   1       5.118  -8.894  29.072  0.00  0.00    +0.056 A 
ATOM      6  CZ2 TRP A   1       4.346  -7.764  28.646  0.00  0.00    +0.017 A 
ATOM      7  CH2 TRP A   1       3.366  -7.988  27.696  0.00  0.00    +0.001 A 
ATOM      8  CZ3 TRP A   1       3.170  -9.292  27.145  0.00  0.00    +0.000 A 
ATOM      9  CE3 TRP A   1       3.955 -10.388  27.563  0.00  0.00    +0.001 A 
ATOM     10  CD2 TRP A   1       4.932 -10.187  28.545  0.00  0.00    +0.013 A 
ENDROOT
BRANCH   1  11
ATOM     11  CB  TRP A   1       6.042 -12.519  28.977  0.00  0.00    +0.053 C 
BRANCH  11  12
ATOM     12  CA  TRP A   1       4.777 -13.277  29.404  0.00  0.00    +0.137 C 
BRANCH  12  13
ATOM     13  N   TRP A   1       4.432 -13.001  30.799  0.00  0.00    -0.239 NA
ATOM     14  H   TRP A   1       5.196 -12.818  31.480  0.00  0.00    +0.142 HD
ENDBRANCH  12  13
BRANCH  12  15
ATOM     15  C   TRP A   1       4.922 -14.766  29.224  0.00  0.00    +0.224 C 
ATOM     16  O   TRP A   1       6.026 -15.281  29.068  0.00  0.00    -0.287 OA
ENDBRANCH  12  15
ENDBRANCH  11  12
ENDBRANCH   1  11
TORSDOF 4
REMARK  Name = ../refined-set-2016/3jzj/3jzj_pocket.pdb
REMARK  249 active torsions:
REMARK  status: ('A' for Active; 'I' for Inactive)
REMARK    1  A    between atoms: _1  and  _3
REMARK    2  A    between atoms: _3  and  _4
REMARK    3  A    between atoms: _3  and  _6
REMARK    4  A    between atoms: _6  and  _7
REMARK    5  A    between atoms: _10  and  _12
REMARK    6  A    between atoms: _12  and  _13
REMARK    7  A    between atoms: _12  and  _15
REMARK    8  A    between atoms: _15  and  _16
REMARK    9  A    between atoms: _19  and  _21
REMARK   10  A    between atoms: _21  and  _22
REMARK   11  A    between atoms: _21  and  _24
REMARK   12  A    between atoms: _24  and  _25
REMARK   13  A    between atoms: _27  and  _29
REMARK   14  A    between atoms: _29  and  _30
REMARK   15  A    between atoms: _29  and  _32
REMARK   16  A    between atoms: _32  and  _33
REMARK   17  A    between atoms: _38  and  _40
REMARK   18  A    between atoms: _40  and  _41
REMARK   19  A    between atoms: _40  and  _43
REMARK   20  A    between atoms: _43  and  _44
REMARK   21  A    between atoms: _44  and  _45
REMARK   22  A    between atoms: _48  and  _50
REMARK   23  A    between atoms: _50  and  _51
REMARK   24  A    between atoms: _54  and  _56
REMARK   25  A    between atoms: _56  and  _57
REMARK   26  A    between atoms: _56  and  _59
REMARK   27  A    between atoms: _59  and  _60
REMARK   28  A    between atoms: _60  and  _61
REMARK   29  A    between atoms: _64  and  _66
REMARK   30  A    between atoms: _66  and  _67
REMARK   31  A    between atoms: _66  and  _69
REMARK   32  A    between atoms: _69  and  _70
REMARK   33  A    between atoms: _70  and  _71
REMARK   34  A    between atoms: _71  and  _72
REMARK   35  A    between atoms: _72  and  _73
REMARK   36  A    between atoms: _77  and  _79
REMARK   37  A    between atoms: _79  and  _80
REMARK   38  A    between atoms: _79  and  _82
REMARK   39  A    between atoms: _82  and  _83
REMARK   40  A    between atoms: _88  and  _89
REMARK   41  A    between atoms: _91  and  _93
REMARK   42  A    between atoms: _93  and  _94
REMARK   43  A    between atoms: _93  and  _96
REMARK   44  A    between atoms: _96  and  _97
REMARK   45  A    between atoms: _102  and  _104
REMARK   46  A    between atoms: _104  and  _105
REMARK   47  A    between atoms: _104  and  _107
REMARK   48  A    between atoms: _111  and  _112
REMARK   49  A    between atoms: _117  and  _119
REMARK   50  A    between atoms: _119  and  _120
REMARK   51  A    between atoms: _119  and  _122
REMARK   52  A    between atoms: _122  and  _123
REMARK   53  A    between atoms: _129  and  _131
REMARK   54  A    between atoms: _131  and  _132
REMARK   55  A    between atoms: _134  and  _136
REMARK   56  A    between atoms: _136  and  _137
REMARK   57  A    between atoms: _136  and  _139
REMARK   58  A    between atoms: _139  and  _140
REMARK   59  A    between atoms: _140  and  _141
REMARK   60  A    between atoms: _144  and  _146
REMARK   61  A    between atoms: _146  and  _147
REMARK   62  A    between atoms: _150  and  _152
REMARK   63  A    between atoms: _152  and  _153
REMARK   64  A    between atoms: _152  and  _155
REMARK   65  A    between atoms: _155  and  _156
REMARK   66  A    between atoms: _161  and  _163
REMARK   67  A    between atoms: _163  and  _164
REMARK   68  A    between atoms: _167  and  _169
REMARK   69  A    between atoms: _169  and  _170
REMARK   70  A    between atoms: _169  and  _172
REMARK   71  A    between atoms: _172  and  _173
REMARK   72  A    between atoms: _173  and  _174
REMARK   73  A    between atoms: _174  and  _175
REMARK   74  A    between atoms: _175  and  _176
REMARK   75  A    between atoms: _180  and  _182
REMARK   76  A    between atoms: _182  and  _183
REMARK   77  A    between atoms: _182  and  _185
REMARK   78  A    between atoms: _185  and  _186
REMARK   79  A    between atoms: _186  and  _187
REMARK   80  A    between atoms: _187  and  _188
REMARK   81  A    between atoms: _188  and  _189
REMARK   82  A    between atoms: _193  and  _195
REMARK   83  A    between atoms: _195  and  _196
REMARK   84  A    between atoms: _195  and  _198
REMARK   85  A    between atoms: _198  and  _199
REMARK   86  A    between atoms: _199  and  _200
REMARK   87  A    between atoms: _200  and  _201
REMARK   88  A    between atoms: _210  and  _212
REMARK   89  A    between atoms: _212  and  _213
REMARK   90  A    between atoms: _212  and  _215
REMARK   91  A    between atoms: _215  and  _216
REMARK   92  A    between atoms: _216  and  _217
REMARK   93  A    between atoms: _220  and  _222
REMARK   94  A    between atoms: _222  and  _223
REMARK   95  A    between atoms: _222  and  _225
REMARK   96  A    between atoms: _228  and  _230
REMARK   97  A    between atoms: _230  and  _231
REMARK   98  A    between atoms: _234  and  _236
REMARK   99  A    between atoms: _236  and  _237
REMARK  100  A    between atoms: _236  and  _239
REMARK  101  A    between atoms: _239  and  _240
REMARK  102  A    between atoms: _250  and  _252
REMARK  103  A    between atoms: _252  and  _253
REMARK  104  A    between atoms: _252  and  _255
REMARK  105  A    between atoms: _258  and  _260
REMARK  106  A    between atoms: _260  and  _261
REMARK  107  A    between atoms: _260  and  _263
REMARK  108  A    between atoms: _263  and  _264
REMARK  109  A    between atoms: _267  and  _269
REMARK  110  A    between atoms: _269  and  _270
REMARK  111  A    between atoms: _269  and  _272
REMARK  112  A    between atoms: _272  and  _273
REMARK  113  A    between atoms: _279  and  _281
REMARK  114  A    between atoms: _281  and  _282
REMARK  115  A    between atoms: _281  and  _284
REMARK  116  A    between atoms: _284  and  _285
REMARK  117  A    between atoms: _285  and  _286
REMARK  118  A    between atoms: _291  and  _293
REMARK  119  A    between atoms: _293  and  _294
REMARK  120  A    between atoms: _293  and  _296
REMARK  121  A    between atoms: _299  and  _301
REMARK  122  A    between atoms: _301  and  _302
REMARK  123  A    between atoms: _301  and  _304
REMARK  124  A    between atoms: _304  and  _305
REMARK  125  A    between atoms: _308  and  _310
REMARK  126  A    between atoms: _310  and  _311
REMARK  127  A    between atoms: _310  and  _313
REMARK  128  A    between atoms: _313  and  _314
REMARK  129  A    between atoms: _317  and  _319
REMARK  130  A    between atoms: _319  and  _320
REMARK  131  A    between atoms: _319  and  _322
REMARK  132  A    between atoms: _322  and  _323
REMARK  133  A    between atoms: _326  and  _328
REMARK  134  A    between atoms: _328  and  _329
REMARK  135  A    between atoms: _328  and  _331
REMARK  136  A    between atoms: _331  and  _332
REMARK  137  A    between atoms: _335  and  _337
REMARK  138  A    between atoms: _337  and  _338
REMARK  139  A    between atoms: _337  and  _340
REMARK  140  A    between atoms: _340  and  _341
REMARK  141  A    between atoms: _341  and  _342
REMARK  142  A    between atoms: _342  and  _343
REMARK  143  A    between atoms: _352  and  _354
REMARK  144  A    between atoms: _354  and  _355
REMARK  145  A    between atoms: _354  and  _357
REMARK  146  A    between atoms: _357  and  _358
REMARK  147  A    between atoms: _361  and  _363
REMARK  148  A    between atoms: _363  and  _364
REMARK  149  A    between atoms: _363  and  _366
REMARK  150  A    between atoms: _366  and  _367
REMARK  151  A    between atoms: _371  and  _372
REMARK  152  A    between atoms: _377  and  _379
REMARK  153  A    between atoms: _379  and  _380
REMARK  154  A    between atoms: _379  and  _382
REMARK  155  A    between atoms: _382  and  _383
REMARK  156  A    between atoms: _388  and  _389
REMARK  157  A    between atoms: _391  and  _393
REMARK  158  A    between atoms: _393  and  _394
REMARK  159  A    between atoms: _393  and  _396
REMARK  160  A    between atoms: _396  and  _397
REMARK  161  A    between atoms: _407  and  _409
REMARK  162  A    between atoms: _409  and  _410
REMARK  163  A    between atoms: _409  and  _412
REMARK  164  A    between atoms: _412  and  _413
REMARK  165  A    between atoms: _419  and  _421
REMARK  166  A    between atoms: _421  and  _422
REMARK  167  A    between atoms: _421  and  _424
REMARK  168  A    between atoms: _424  and  _425
REMARK  169  A    between atoms: _428  and  _430
REMARK  170  A    between atoms: _430  and  _431
REMARK  171  A    between atoms: _430  and  _433
REMARK  172  A    between atoms: _433  and  _434
REMARK  173  A    between atoms: _444  and  _446
REMARK  174  A    between atoms: _446  and  _447
REMARK  175  A    between atoms: _446  and  _449
REMARK  176  A    between atoms: _449  and  _450
REMARK  177  A    between atoms: _450  and  _451
REMARK  178  A    between atoms: _453  and  _455
REMARK  179  A    between atoms: _455  and  _456
REMARK  180  A    between atoms: _455  and  _458
REMARK  181  A    between atoms: _458  and  _459
REMARK  182  A    between atoms: _464  and  _466
REMARK  183  A    between atoms: _466  and  _467
REMARK  184  A    between atoms: _470  and  _471
REMARK  185  A    between atoms: _476  and  _478
REMARK  186  A    between atoms: _478  and  _479
REMARK  187  A    between atoms: _478  and  _481
REMARK  188  A    between atoms: _481  and  _482
REMARK  189  A    between atoms: _492  and  _494
REMARK  190  A    between atoms: _494  and  _495
REMARK  191  A    between atoms: _499  and  _500
REMARK  192  A    between atoms: _505  and  _507
REMARK  193  A    between atoms: _507  and  _508
REMARK  194  A    between atoms: _507  and  _510
REMARK  195  A    between atoms: _510  and  _511
REMARK  196  A    between atoms: _511  and  _512
REMARK  197  A    between atoms: _517  and  _519
REMARK  198  A    between atoms: _519  and  _520
REMARK  199  A    between atoms: _522  and  _524
REMARK  200  A    between atoms: _524  and  _525
REMARK  201  A    between atoms: _527  and  _529
REMARK  202  A    between atoms: _529  and  _530
REMARK  203  A    between atoms: _529  and  _532
REMARK  204  A    between atoms: _532  and  _533
REMARK  205  A    between atoms: _543  and  _545
REMARK  206  A    between atoms: _545  and  _546
REMARK  207  A    between atoms: _545  and  _548
REMARK  208  A    between atoms: _548  and  _549
REMARK  209  A    between atoms: _552  and  _554
REMARK  210  A    between atoms: _554  and  _555
REMARK  211  A    between atoms: _554  and  _557
REMARK  212  A    between atoms: _557  and  _558
REMARK  213  A    between atoms: _561  and  _563
REMARK  214  A    between atoms: _563  and  _564
REMARK  215  A    between atoms: _563  and  _566
REMARK  216  A    between atoms: _566  and  _567
REMARK  217  A    between atoms: _567  and  _568
REMARK  218  A    between atoms: _568  and  _569
REMARK  219  A    between atoms: _578  and  _580
REMARK  220  A    between atoms: _580  and  _581
REMARK  221  A    between atoms: _580  and  _583
REMARK  222  A    between atoms: _583  and  _584
REMARK  223  A    between atoms: _594  and  _596
REMARK  224  A    between atoms: _596  and  _597
REMARK  225  A    between atoms: _599  and  _601
REMARK  226  A    between atoms: _601  and  _602
REMARK  227  A    between atoms: _601  and  _604
REMARK  228  A    between atoms: _604  and  _605
REMARK  229  A    between atoms: _610  and  _612
REMARK  230  A    between atoms: _612  and  _613
REMARK  231  A    between atoms: _616  and  _618
REMARK  232  A    between atoms: _618  and  _619
REMARK  233  A    between atoms: _618  and  _621
REMARK  234  A    between atoms: _621  and  _622
REMARK  235  A    between atoms: _625  and  _627
REMARK  236  A    between atoms: _627  and  _628
REMARK  237  A    between atoms: _627  and  _630
REMARK  238  A    between atoms: _630  and  _631
REMARK  239  A    between atoms: _637  and  _639
REMARK  240  A    between atoms: _639  and  _640
REMARK  241  A    between atoms: _639  and  _642
REMARK  242  A    between atoms: _642  and  _643
REMARK  243  A    between atoms: _643  and  _644
REMARK  244  A    between atoms: _647  and  _649
REMARK  245  A    between atoms: _649  and  _650
REMARK  246  A    between atoms: _649  and  _652
REMARK  247  A    between atoms: _652  and  _653
REMARK  248  A    between atoms: _653  and  _654
REMARK  249  A    between atoms: _654  and  _655
REMARK                            x       y       z     vdW  Elec       q    Type
REMARK                         _______ _______ _______ _____ _____    ______ ____
ROOT
ATOM      1  CA  LEU A   4      -6.437 -15.537  29.452  0.00  0.00    +0.149 C 
ENDROOT
BRANCH   1   3
ATOM      2  C   ALA A   3      -6.383 -16.838  27.376  0.00  0.00    +0.241 C 
ATOM      3  N   LEU A   4      -5.737 -16.057  28.241  0.00  0.00    -0.297 N 
ATOM      4  H   LEU A   4      -4.741 -15.809  28.072  0.00  0.00    +0.150 HD
ATOM      5  O   ALA A   3      -7.542 -17.235  27.580  0.00  0.00    -0.273 OA
BRANCH   2   6
ATOM      6  CA  ALA A   3      -5.658 -17.275  26.096  0.00  0.00    +0.149 C 
ATOM      7  CB  ALA A   3      -5.314 -18.780  26.129  0.00  0.00    +0.031 C 
BRANCH   6   9
ATOM      8  C   ASN A   2      -4.596 -15.194  25.490  0.00  0.00    +0.241 C 
ATOM      9  N   ALA A   3      -4.482 -16.483  25.843  0.00  0.00    -0.297 N 
ATOM     10  H   ALA A   3      -3.539 -16.913  25.934  0.00  0.00    +0.150 HD
ATOM     11  O   ASN A   2      -5.684 -14.658  25.278  0.00  0.00    -0.273 OA
BRANCH   8  12
ATOM     12  CA  ASN A   2      -3.300 -14.396  25.368  0.00  0.00    +0.158 C 
BRANCH  12  15
ATOM     13  C   GLY A   1      -2.220 -14.877  27.437  0.00  0.00    +0.240 C 
ATOM     14  O   GLY A   1      -3.194 -14.391  28.028  0.00  0.00    -0.274 OA
ATOM     15  N   ASN A   2      -2.177 -14.969  26.110  0.00  0.00    -0.297 N 
ATOM     16  H   ASN A   2      -1.381 -15.428  25.623  0.00  0.00    +0.150 HD
BRANCH  13  17
ATOM     17  CA  GLY A   1      -1.027 -15.377  28.222  0.00  0.00    +0.169 C 
BRANCH  17  18
ATOM     18  N   GLY A   1      -0.602 -16.732  27.883  0.00  0.00    -0.236 NA
ATOM     19  H   GLY A   1       0.407 -16.920  27.716  0.00  0.00    +0.142 HD
ENDBRANCH  17  18
ENDBRANCH  13  17
ENDBRANCH  12  15
BRANCH  12  20
ATOM     20  CB  ASN A   2      -2.940 -14.095  23.918  0.00  0.00    +0.114 C 
BRANCH  20  21
ATOM     21  CG  ASN A   2      -2.630 -15.310  23.126  0.00  0.00    +0.222 C 
ATOM     22  OD1 ASN A   2      -2.477 -16.424  23.657  0.00  0.00    -0.275 OA
ATOM     23  ND2 ASN A   2      -2.565 -15.134  21.815  0.00  0.00    -0.329 N 
ATOM     24 HD21 ASN A   2      -2.699 -14.185  21.410  0.00  0.00    +0.145 HD
ATOM     25 HD22 ASN A   2      -2.380 -15.944  21.190  0.00  0.00    +0.145 HD
ENDBRANCH  20  21
ENDBRANCH  12  20
ENDBRANCH   8  12
ENDBRANCH   6   9
ENDBRANCH   2   6
ENDBRANCH   1   3
BRANCH   1  26
ATOM     26  C   LEU A   4      -7.553 -14.569  29.083  0.00  0.00    +0.241 C 
ATOM     27  O   LEU A   4      -8.426 -14.281  29.914  0.00  0.00    -0.273 OA
ATOM     28  N   PHE A   5      -7.572 -14.094  27.848  0.00  0.00    -0.297 N 
ATOM     29  H   PHE A   5      -6.879 -14.433  27.150  0.00  0.00    +0.150 HD
BRANCH  28  30
ATOM     30  CA  PHE A   5      -8.555 -13.105  27.468  0.00  0.00    +0.153 C 
BRANCH  30  31
ATOM     31  C   PHE A   5      -9.867 -13.715  27.074  0.00  0.00    +0.241 C 
ATOM     32  O   PHE A   5     -10.915 -13.095  27.201  0.00  0.00    -0.273 OA
ATOM     33  N   GLU A   6      -9.838 -14.960  26.623  0.00  0.00    -0.298 N 
ATOM     34  H   GLU A   6      -8.968 -15.529  26.654  0.00  0.00    +0.150 HD
BRANCH  33  35
ATOM     35  CA  GLU A   6     -11.073 -15.495  26.084  0.00  0.00    +0.137 C 
BRANCH  35  36
ATOM     36  C   GLU A   6     -12.175 -15.704  27.196  0.00  0.00    +0.227 C 
ATOM     37  O   GLU A   6     -13.343 -15.426  26.921  0.00  0.00    -0.286 OA
ENDBRANCH  35  36
BRANCH  35  38
ATOM     38  CB  GLU A   6     -10.775 -16.789  25.269  0.00  0.00    +0.039 C 
BRANCH  38  39
ATOM     39  CG  GLU A   6     -12.011 -17.359  24.585  0.00  0.00    +0.116 C 
BRANCH  39  40
ATOM     40  CD  GLU A   6     -12.608 -16.582  23.404  0.00  0.00    +0.365 C 
ATOM     41  OE2 GLU A   6     -12.250 -15.408  23.130  0.00  0.00    -0.246 OA
ATOM     42  OE1 GLU A   6     -13.516 -17.151  22.698  0.00  0.00    -0.246 OA
ENDBRANCH  39  40
ENDBRANCH  38  39
ENDBRANCH  35  38
ENDBRANCH  33  35
ENDBRANCH  30  31
BRANCH  30  43
ATOM     43  CB  PHE A   5      -8.015 -12.225  26.319  0.00  0.00    +0.055 C 
BRANCH  43  44
ATOM     44  CG  PHE A   5      -7.008 -11.239  26.817  0.00  0.00    -0.020 A 
ATOM     45  CD2 PHE A   5      -7.393 -10.156  27.626  0.00  0.00    -0.004 A 
ATOM     46  CE2 PHE A   5      -6.432  -9.301  28.158  0.00  0.00    -0.000 A 
ATOM     47  CZ  PHE A   5      -5.079  -9.499  27.904  0.00  0.00    -0.000 A 
ATOM     48  CE1 PHE A   5      -4.694 -10.565  27.132  0.00  0.00    -0.000 A 
ATOM     49  CD1 PHE A   5      -5.654 -11.444  26.580  0.00  0.00    -0.004 A 
ENDBRANCH  43  44
ENDBRANCH  30  43
ENDBRANCH  28  30
ENDBRANCH   1  26
BRANCH   1  50
ATOM     50  CB  LEU A   4      -5.434 -14.806  30.352  0.00  0.00    +0.029 C 
BRANCH  50  51
ATOM     51  CG  LEU A   4      -4.356 -15.753  30.923  0.00  0.00    +0.002 C 
ATOM     52  CD2 LEU A   4      -3.412 -14.928  31.776  0.00  0.00    +0.000 C 
ATOM     53  CD1 LEU A   4      -4.946 -16.934  31.729  0.00  0.00    +0.000 C 
ENDBRANCH  50  51
ENDBRANCH   1  50
TORSDOF 21
REMARK  Name = ../refined-set-2016/3jzj/3jzj_pocket.pdb
REMARK  249 active torsions:
REMARK  status: ('A' for Active; 'I' for Inactive)
REMARK    1  A    between atoms: _1  and  _3
REMARK    2  A    between atoms: _3  and  _4
REMARK    3  A    between atoms: _3  and  _6
REMARK    4  A    between atoms: _6  and  _7
REMARK    5  A    between atoms: _10  and  _12
REMARK    6  A    between atoms: _12  and  _13
REMARK    7  A    between atoms: _12  and  _15
REMARK    8  A    between atoms: _15  and  _16
REMARK    9  A    between atoms: _19  and  _21
REMARK   10  A    between atoms: _21  and  _22
REMARK   11  A    between atoms: _21  and  _24
REMARK   12  A    between atoms: _24  and  _25
REMARK   13  A    between atoms: _27  and  _29
REMARK   14  A    between atoms: _29  and  _30
REMARK   15  A    between atoms: _29  and  _32
REMARK   16  A    between atoms: _32  and  _33
REMARK   17  A    between atoms: _38  and  _40
REMARK   18  A    between atoms: _40  and  _41
REMARK   19  A    between atoms: _40  and  _43
REMARK   20  A    between atoms: _43  and  _44
REMARK   21  A    between atoms: _44  and  _45
REMARK   22  A    between atoms: _48  and  _50
REMARK   23  A    between atoms: _50  and  _51
REMARK   24  A    between atoms: _54  and  _56
REMARK   25  A    between atoms: _56  and  _57
REMARK   26  A    between atoms: _56  and  _59
REMARK   27  A    between atoms: _59  and  _60
REMARK   28  A    between atoms: _60  and  _61
REMARK   29  A    between atoms: _64  and  _66
REMARK   30  A    between atoms: _66  and  _67
REMARK   31  A    between atoms: _66  and  _69
REMARK   32  A    between atoms: _69  and  _70
REMARK   33  A    between atoms: _70  and  _71
REMARK   34  A    between atoms: _71  and  _72
REMARK   35  A    between atoms: _72  and  _73
REMARK   36  A    between atoms: _77  and  _79
REMARK   37  A    between atoms: _79  and  _80
REMARK   38  A    between atoms: _79  and  _82
REMARK   39  A    between atoms: _82  and  _83
REMARK   40  A    between atoms: _88  and  _89
REMARK   41  A    between atoms: _91  and  _93
REMARK   42  A    between atoms: _93  and  _94
REMARK   43  A    between atoms: _93  and  _96
REMARK   44  A    between atoms: _96  and  _97
REMARK   45  A    between atoms: _102  and  _104
REMARK   46  A    between atoms: _104  and  _105
REMARK   47  A    between atoms: _104  and  _107
REMARK   48  A    between atoms: _111  and  _112
REMARK   49  A    between atoms: _117  and  _119
REMARK   50  A    between atoms: _119  and  _120
REMARK   51  A    between atoms: _119  and  _122
REMARK   52  A    between atoms: _122  and  _123
REMARK   53  A    between atoms: _129  and  _131
REMARK   54  A    between atoms: _131  and  _132
REMARK   55  A    between atoms: _134  and  _136
REMARK   56  A    between atoms: _136  and  _137
REMARK   57  A    between atoms: _136  and  _139
REMARK   58  A    between atoms: _139  and  _140
REMARK   59  A    between atoms: _140  and  _141
REMARK   60  A    between atoms: _144  and  _146
REMARK   61  A    between atoms: _146  and  _147
REMARK   62  A    between atoms: _150  and  _152
REMARK   63  A    between atoms: _152  and  _153
REMARK   64  A    between atoms: _152  and  _155
REMARK   65  A    between atoms: _155  and  _156
REMARK   66  A    between atoms: _161  and  _163
REMARK   67  A    between atoms: _163  and  _164
REMARK   68  A    between atoms: _167  and  _169
REMARK   69  A    between atoms: _169  and  _170
REMARK   70  A    between atoms: _169  and  _172
REMARK   71  A    between atoms: _172  and  _173
REMARK   72  A    between atoms: _173  and  _174
REMARK   73  A    between atoms: _174  and  _175
REMARK   74  A    between atoms: _175  and  _176
REMARK   75  A    between atoms: _180  and  _182
REMARK   76  A    between atoms: _182  and  _183
REMARK   77  A    between atoms: _182  and  _185
REMARK   78  A    between atoms: _185  and  _186
REMARK   79  A    between atoms: _186  and  _187
REMARK   80  A    between atoms: _187  and  _188
REMARK   81  A    between atoms: _188  and  _189
REMARK   82  A    between atoms: _193  and  _195
REMARK   83  A    between atoms: _195  and  _196
REMARK   84  A    between atoms: _195  and  _198
REMARK   85  A    between atoms: _198  and  _199
REMARK   86  A    between atoms: _199  and  _200
REMARK   87  A    between atoms: _200  and  _201
REMARK   88  A    between atoms: _210  and  _212
REMARK   89  A    between atoms: _212  and  _213
REMARK   90  A    between atoms: _212  and  _215
REMARK   91  A    between atoms: _215  and  _216
REMARK   92  A    between atoms: _216  and  _217
REMARK   93  A    between atoms: _220  and  _222
REMARK   94  A    between atoms: _222  and  _223
REMARK   95  A    between atoms: _222  and  _225
REMARK   96  A    between atoms: _228  and  _230
REMARK   97  A    between atoms: _230  and  _231
REMARK   98  A    between atoms: _234  and  _236
REMARK   99  A    between atoms: _236  and  _237
REMARK  100  A    between atoms: _236  and  _239
REMARK  101  A    between atoms: _239  and  _240
REMARK  102  A    between atoms: _250  and  _252
REMARK  103  A    between atoms: _252  and  _253
REMARK  104  A    between atoms: _252  and  _255
REMARK  105  A    between atoms: _258  and  _260
REMARK  106  A    between atoms: _260  and  _261
REMARK  107  A    between atoms: _260  and  _263
REMARK  108  A    between atoms: _263  and  _264
REMARK  109  A    between atoms: _267  and  _269
REMARK  110  A    between atoms: _269  and  _270
REMARK  111  A    between atoms: _269  and  _272
REMARK  112  A    between atoms: _272  and  _273
REMARK  113  A    between atoms: _279  and  _281
REMARK  114  A    between atoms: _281  and  _282
REMARK  115  A    between atoms: _281  and  _284
REMARK  116  A    between atoms: _284  and  _285
REMARK  117  A    between atoms: _285  and  _286
REMARK  118  A    between atoms: _291  and  _293
REMARK  119  A    between atoms: _293  and  _294
REMARK  120  A    between atoms: _293  and  _296
REMARK  121  A    between atoms: _299  and  _301
REMARK  122  A    between atoms: _301  and  _302
REMARK  123  A    between atoms: _301  and  _304
REMARK  124  A    between atoms: _304  and  _305
REMARK  125  A    between atoms: _308  and  _310
REMARK  126  A    between atoms: _310  and  _311
REMARK  127  A    between atoms: _310  and  _313
REMARK  128  A    between atoms: _313  and  _314
REMARK  129  A    between atoms: _317  and  _319
REMARK  130  A    between atoms: _319  and  _320
REMARK  131  A    between atoms: _319  and  _322
REMARK  132  A    between atoms: _322  and  _323
REMARK  133  A    between atoms: _326  and  _328
REMARK  134  A    between atoms: _328  and  _329
REMARK  135  A    between atoms: _328  and  _331
REMARK  136  A    between atoms: _331  and  _332
REMARK  137  A    between atoms: _335  and  _337
REMARK  138  A    between atoms: _337  and  _338
REMARK  139  A    between atoms: _337  and  _340
REMARK  140  A    between atoms: _340  and  _341
REMARK  141  A    between atoms: _341  and  _342
REMARK  142  A    between atoms: _342  and  _343
REMARK  143  A    between atoms: _352  and  _354
REMARK  144  A    between atoms: _354  and  _355
REMARK  145  A    between atoms: _354  and  _357
REMARK  146  A    between atoms: _357  and  _358
REMARK  147  A    between atoms: _361  and  _363
REMARK  148  A    between atoms: _363  and  _364
REMARK  149  A    between atoms: _363  and  _366
REMARK  150  A    between atoms: _366  and  _367
REMARK  151  A    between atoms: _371  and  _372
REMARK  152  A    between atoms: _377  and  _379
REMARK  153  A    between atoms: _379  and  _380
REMARK  154  A    between atoms: _379  and  _382
REMARK  155  A    between atoms: _382  and  _383
REMARK  156  A    between atoms: _388  and  _389
REMARK  157  A    between atoms: _391  and  _393
REMARK  158  A    between atoms: _393  and  _394
REMARK  159  A    between atoms: _393  and  _396
REMARK  160  A    between atoms: _396  and  _397
REMARK  161  A    between atoms: _407  and  _409
REMARK  162  A    between atoms: _409  and  _410
REMARK  163  A    between atoms: _409  and  _412
REMARK  164  A    between atoms: _412  and  _413
REMARK  165  A    between atoms: _419  and  _421
REMARK  166  A    between atoms: _421  and  _422
REMARK  167  A    between atoms: _421  and  _424
REMARK  168  A    between atoms: _424  and  _425
REMARK  169  A    between atoms: _428  and  _430
REMARK  170  A    between atoms: _430  and  _431
REMARK  171  A    between atoms: _430  and  _433
REMARK  172  A    between atoms: _433  and  _434
REMARK  173  A    between atoms: _444  and  _446
REMARK  174  A    between atoms: _446  and  _447
REMARK  175  A    between atoms: _446  and  _449
REMARK  176  A    between atoms: _449  and  _450
REMARK  177  A    between atoms: _450  and  _451
REMARK  178  A    between atoms: _453  and  _455
REMARK  179  A    between atoms: _455  and  _456
REMARK  180  A    between atoms: _455  and  _458
REMARK  181  A    between atoms: _458  and  _459
REMARK  182  A    between atoms: _464  and  _466
REMARK  183  A    between atoms: _466  and  _467
REMARK  184  A    between atoms: _470  and  _471
REMARK  185  A    between atoms: _476  and  _478
REMARK  186  A    between atoms: _478  and  _479
REMARK  187  A    between atoms: _478  and  _481
REMARK  188  A    between atoms: _481  and  _482
REMARK  189  A    between atoms: _492  and  _494
REMARK  190  A    between atoms: _494  and  _495
REMARK  191  A    between atoms: _499  and  _500
REMARK  192  A    between atoms: _505  and  _507
REMARK  193  A    between atoms: _507  and  _508
REMARK  194  A    between atoms: _507  and  _510
REMARK  195  A    between atoms: _510  and  _511
REMARK  196  A    between atoms: _511  and  _512
REMARK  197  A    between atoms: _517  and  _519
REMARK  198  A    between atoms: _519  and  _520
REMARK  199  A    between atoms: _522  and  _524
REMARK  200  A    between atoms: _524  and  _525
REMARK  201  A    between atoms: _527  and  _529
REMARK  202  A    between atoms: _529  and  _530
REMARK  203  A    between atoms: _529  and  _532
REMARK  204  A    between atoms: _532  and  _533
REMARK  205  A    between atoms: _543  and  _545
REMARK  206  A    between atoms: _545  and  _546
REMARK  207  A    between atoms: _545  and  _548
REMARK  208  A    between atoms: _548  and  _549
REMARK  209  A    between atoms: _552  and  _554
REMARK  210  A    between atoms: _554  and  _555
REMARK  211  A    between atoms: _554  and  _557
REMARK  212  A    between atoms: _557  and  _558
REMARK  213  A    between atoms: _561  and  _563
REMARK  214  A    between atoms: _563  and  _564
REMARK  215  A    between atoms: _563  and  _566
REMARK  216  A    between atoms: _566  and  _567
REMARK  217  A    between atoms: _567  and  _568
REMARK  218  A    between atoms: _568  and  _569
REMARK  219  A    between atoms: _578  and  _580
REMARK  220  A    between atoms: _580  and  _581
REMARK  221  A    between atoms: _580  and  _583
REMARK  222  A    between atoms: _583  and  _584
REMARK  223  A    between atoms: _594  and  _596
REMARK  224  A    between atoms: _596  and  _597
REMARK  225  A    between atoms: _599  and  _601
REMARK  226  A    between atoms: _601  and  _602
REMARK  227  A    between atoms: _601  and  _604
REMARK  228  A    between atoms: _604  and  _605
REMARK  229  A    between atoms: _610  and  _612
REMARK  230  A    between atoms: _612  and  _613
REMARK  231  A    between atoms: _616  and  _618
REMARK  232  A    between atoms: _618  and  _619
REMARK  233  A    between atoms: _618  and  _621
REMARK  234  A    between atoms: _621  and  _622
REMARK  235  A    between atoms: _625  and  _627
REMARK  236  A    between atoms: _627  and  _628
REMARK  237  A    between atoms: _627  and  _630
REMARK  238  A    between atoms: _630  and  _631
REMARK  239  A    between atoms: _637  and  _639
REMARK  240  A    between atoms: _639  and  _640
REMARK  241  A    between atoms: _639  and  _642
REMARK  242  A    between atoms: _642  and  _643
REMARK  243  A    between atoms: _643  and  _644
REMARK  244  A    between atoms: _647  and  _649
REMARK  245  A    between atoms: _649  and  _650
REMARK  246  A    between atoms: _649  and  _652
REMARK  247  A    between atoms: _652  and  _653
REMARK  248  A    between atoms: _653  and  _654
REMARK  249  A    between atoms: _654  and  _655
REMARK                            x       y       z     vdW  Elec       q    Type
REMARK                         _______ _______ _______ _____ _____    ______ ____
ROOT
ATOM      1  NE  ARG A   1     -14.378 -13.714  22.601  0.00  0.00    -0.265 N 
ATOM      2  HE  ARG A   1     -13.598 -14.375  22.791  0.00  0.00    +0.259 HD
ATOM      3  CZ  ARG A   1     -15.503 -14.222  22.101  0.00  0.00    +0.342 C 
ATOM      4  NH2 ARG A   1     -16.572 -13.461  21.939  0.00  0.00    -0.292 N 
ATOM      5 HH21 ARG A   1     -16.539 -12.456  22.203  0.00  0.00    +0.255 HD
ATOM      6 HH22 ARG A   1     -17.445 -13.868  21.548  0.00  0.00    +0.255 HD
ATOM      7  NH1 ARG A   1     -15.560 -15.522  21.793  0.00  0.00    -0.292 N 
ATOM      8 HH11 ARG A   1     -14.729 -16.129  21.944  0.00  0.00    +0.255 HD
ATOM      9 HH12 ARG A   1     -16.435 -15.926  21.402  0.00  0.00    +0.255 HD
ENDROOT
BRANCH   1  10
ATOM     10  CD  ARG A   1     -14.154 -12.315  22.902  0.00  0.00    +0.174 C 
BRANCH  10  11
ATOM     11  CG  ARG A   1     -14.795 -11.898  24.248  0.00  0.00    +0.045 C 
BRANCH  11  12
ATOM     12  CB  ARG A   1     -14.037 -12.476  25.365  0.00  0.00    +0.029 C 
BRANCH  12  13
ATOM     13  CA  ARG A   1     -14.591 -12.119  26.753  0.00  0.00    +0.133 C 
BRANCH  13  14
ATOM     14  N   ARG A   1     -13.729 -12.553  27.819  0.00  0.00    -0.239 NA
ATOM     15  H   ARG A   1     -12.846 -13.053  27.589  0.00  0.00    +0.142 HD
ENDBRANCH  13  14
BRANCH  13  16
ATOM     16  C   ARG A   1     -15.966 -12.679  26.981  0.00  0.00    +0.224 C 
ATOM     17  O   ARG A   1     -16.941 -11.973  26.852  0.00  0.00    -0.287 OA
ENDBRANCH  13  16
ENDBRANCH  12  13
ENDBRANCH  11  12
ENDBRANCH  10  11
ENDBRANCH   1  10
TORSDOF 6
REMARK  Name = ../refined-set-2016/3jzj/3jzj_pocket.pdb
REMARK  249 active torsions:
REMARK  status: ('A' for Active; 'I' for Inactive)
REMARK    1  A    between atoms: _1  and  _3
REMARK    2  A    between atoms: _3  and  _4
REMARK    3  A    between atoms: _3  and  _6
REMARK    4  A    between atoms: _6  and  _7
REMARK    5  A    between atoms: _10  and  _12
REMARK    6  A    between atoms: _12  and  _13
REMARK    7  A    between atoms: _12  and  _15
REMARK    8  A    between atoms: _15  and  _16
REMARK    9  A    between atoms: _19  and  _21
REMARK   10  A    between atoms: _21  and  _22
REMARK   11  A    between atoms: _21  and  _24
REMARK   12  A    between atoms: _24  and  _25
REMARK   13  A    between atoms: _27  and  _29
REMARK   14  A    between atoms: _29  and  _30
REMARK   15  A    between atoms: _29  and  _32
REMARK   16  A    between atoms: _32  and  _33
REMARK   17  A    between atoms: _38  and  _40
REMARK   18  A    between atoms: _40  and  _41
REMARK   19  A    between atoms: _40  and  _43
REMARK   20  A    between atoms: _43  and  _44
REMARK   21  A    between atoms: _44  and  _45
REMARK   22  A    between atoms: _48  and  _50
REMARK   23  A    between atoms: _50  and  _51
REMARK   24  A    between atoms: _54  and  _56
REMARK   25  A    between atoms: _56  and  _57
REMARK   26  A    between atoms: _56  and  _59
REMARK   27  A    between atoms: _59  and  _60
REMARK   28  A    between atoms: _60  and  _61
REMARK   29  A    between atoms: _64  and  _66
REMARK   30  A    between atoms: _66  and  _67
REMARK   31  A    between atoms: _66  and  _69
REMARK   32  A    between atoms: _69  and  _70
REMARK   33  A    between atoms: _70  and  _71
REMARK   34  A    between atoms: _71  and  _72
REMARK   35  A    between atoms: _72  and  _73
REMARK   36  A    between atoms: _77  and  _79
REMARK   37  A    between atoms: _79  and  _80
REMARK   38  A    between atoms: _79  and  _82
REMARK   39  A    between atoms: _82  and  _83
REMARK   40  A    between atoms: _88  and  _89
REMARK   41  A    between atoms: _91  and  _93
REMARK   42  A    between atoms: _93  and  _94
REMARK   43  A    between atoms: _93  and  _96
REMARK   44  A    between atoms: _96  and  _97
REMARK   45  A    between atoms: _102  and  _104
REMARK   46  A    between atoms: _104  and  _105
REMARK   47  A    between atoms: _104  and  _107
REMARK   48  A    between atoms: _111  and  _112
REMARK   49  A    between atoms: _117  and  _119
REMARK   50  A    between atoms: _119  and  _120
REMARK   51  A    between atoms: _119  and  _122
REMARK   52  A    between atoms: _122  and  _123
REMARK   53  A    between atoms: _129  and  _131
REMARK   54  A    between atoms: _131  and  _132
REMARK   55  A    between atoms: _134  and  _136
REMARK   56  A    between atoms: _136  and  _137
REMARK   57  A    between atoms: _136  and  _139
REMARK   58  A    between atoms: _139  and  _140
REMARK   59  A    between atoms: _140  and  _141
REMARK   60  A    between atoms: _144  and  _146
REMARK   61  A    between atoms: _146  and  _147
REMARK   62  A    between atoms: _150  and  _152
REMARK   63  A    between atoms: _152  and  _153
REMARK   64  A    between atoms: _152  and  _155
REMARK   65  A    between atoms: _155  and  _156
REMARK   66  A    between atoms: _161  and  _163
REMARK   67  A    between atoms: _163  and  _164
REMARK   68  A    between atoms: _167  and  _169
REMARK   69  A    between atoms: _169  and  _170
REMARK   70  A    between atoms: _169  and  _172
REMARK   71  A    between atoms: _172  and  _173
REMARK   72  A    between atoms: _173  and  _174
REMARK   73  A    between atoms: _174  and  _175
REMARK   74  A    between atoms: _175  and  _176
REMARK   75  A    between atoms: _180  and  _182
REMARK   76  A    between atoms: _182  and  _183
REMARK   77  A    between atoms: _182  and  _185
REMARK   78  A    between atoms: _185  and  _186
REMARK   79  A    between atoms: _186  and  _187
REMARK   80  A    between atoms: _187  and  _188
REMARK   81  A    between atoms: _188  and  _189
REMARK   82  A    between atoms: _193  and  _195
REMARK   83  A    between atoms: _195  and  _196
REMARK   84  A    between atoms: _195  and  _198
REMARK   85  A    between atoms: _198  and  _199
REMARK   86  A    between atoms: _199  and  _200
REMARK   87  A    between atoms: _200  and  _201
REMARK   88  A    between atoms: _210  and  _212
REMARK   89  A    between atoms: _212  and  _213
REMARK   90  A    between atoms: _212  and  _215
REMARK   91  A    between atoms: _215  and  _216
REMARK   92  A    between atoms: _216  and  _217
REMARK   93  A    between atoms: _220  and  _222
REMARK   94  A    between atoms: _222  and  _223
REMARK   95  A    between atoms: _222  and  _225
REMARK   96  A    between atoms: _228  and  _230
REMARK   97  A    between atoms: _230  and  _231
REMARK   98  A    between atoms: _234  and  _236
REMARK   99  A    between atoms: _236  and  _237
REMARK  100  A    between atoms: _236  and  _239
REMARK  101  A    between atoms: _239  and  _240
REMARK  102  A    between atoms: _250  and  _252
REMARK  103  A    between atoms: _252  and  _253
REMARK  104  A    between atoms: _252  and  _255
REMARK  105  A    between atoms: _258  and  _260
REMARK  106  A    between atoms: _260  and  _261
REMARK  107  A    between atoms: _260  and  _263
REMARK  108  A    between atoms: _263  and  _264
REMARK  109  A    between atoms: _267  and  _269
REMARK  110  A    between atoms: _269  and  _270
REMARK  111  A    between atoms: _269  and  _272
REMARK  112  A    between atoms: _272  and  _273
REMARK  113  A    between atoms: _279  and  _281
REMARK  114  A    between atoms: _281  and  _282
REMARK  115  A    between atoms: _281  and  _284
REMARK  116  A    between atoms: _284  and  _285
REMARK  117  A    between atoms: _285  and  _286
REMARK  118  A    between atoms: _291  and  _293
REMARK  119  A    between atoms: _293  and  _294
REMARK  120  A    between atoms: _293  and  _296
REMARK  121  A    between atoms: _299  and  _301
REMARK  122  A    between atoms: _301  and  _302
REMARK  123  A    between atoms: _301  and  _304
REMARK  124  A    between atoms: _304  and  _305
REMARK  125  A    between atoms: _308  and  _310
REMARK  126  A    between atoms: _310  and  _311
REMARK  127  A    between atoms: _310  and  _313
REMARK  128  A    between atoms: _313  and  _314
REMARK  129  A    between atoms: _317  and  _319
REMARK  130  A    between atoms: _319  and  _320
REMARK  131  A    between atoms: _319  and  _322
REMARK  132  A    between atoms: _322  and  _323
REMARK  133  A    between atoms: _326  and  _328
REMARK  134  A    between atoms: _328  and  _329
REMARK  135  A    between atoms: _328  and  _331
REMARK  136  A    between atoms: _331  and  _332
REMARK  137  A    between atoms: _335  and  _337
REMARK  138  A    between atoms: _337  and  _338
REMARK  139  A    between atoms: _337  and  _340
REMARK  140  A    between atoms: _340  and  _341
REMARK  141  A    between atoms: _341  and  _342
REMARK  142  A    between atoms: _342  and  _343
REMARK  143  A    between atoms: _352  and  _354
REMARK  144  A    between atoms: _354  and  _355
REMARK  145  A    between atoms: _354  and  _357
REMARK  146  A    between atoms: _357  and  _358
REMARK  147  A    between atoms: _361  and  _363
REMARK  148  A    between atoms: _363  and  _364
REMARK  149  A    between atoms: _363  and  _366
REMARK  150  A    between atoms: _366  and  _367
REMARK  151  A    between atoms: _371  and  _372
REMARK  152  A    between atoms: _377  and  _379
REMARK  153  A    between atoms: _379  and  _380
REMARK  154  A    between atoms: _379  and  _382
REMARK  155  A    between atoms: _382  and  _383
REMARK  156  A    between atoms: _388  and  _389
REMARK  157  A    between atoms: _391  and  _393
REMARK  158  A    between atoms: _393  and  _394
REMARK  159  A    between atoms: _393  and  _396
REMARK  160  A    between atoms: _396  and  _397
REMARK  161  A    between atoms: _407  and  _409
REMARK  162  A    between atoms: _409  and  _410
REMARK  163  A    between atoms: _409  and  _412
REMARK  164  A    between atoms: _412  and  _413
REMARK  165  A    between atoms: _419  and  _421
REMARK  166  A    between atoms: _421  and  _422
REMARK  167  A    between atoms: _421  and  _424
REMARK  168  A    between atoms: _424  and  _425
REMARK  169  A    between atoms: _428  and  _430
REMARK  170  A    between atoms: _430  and  _431
REMARK  171  A    between atoms: _430  and  _433
REMARK  172  A    between atoms: _433  and  _434
REMARK  173  A    between atoms: _444  and  _446
REMARK  174  A    between atoms: _446  and  _447
REMARK  175  A    between atoms: _446  and  _449
REMARK  176  A    between atoms: _449  and  _450
REMARK  177  A    between atoms: _450  and  _451
REMARK  178  A    between atoms: _453  and  _455
REMARK  179  A    between atoms: _455  and  _456
REMARK  180  A    between atoms: _455  and  _458
REMARK  181  A    between atoms: _458  and  _459
REMARK  182  A    between atoms: _464  and  _466
REMARK  183  A    between atoms: _466  and  _467
REMARK  184  A    between atoms: _470  and  _471
REMARK  185  A    between atoms: _476  and  _478
REMARK  186  A    between atoms: _478  and  _479
REMARK  187  A    between atoms: _478  and  _481
REMARK  188  A    between atoms: _481  and  _482
REMARK  189  A    between atoms: _492  and  _494
REMARK  190  A    between atoms: _494  and  _495
REMARK  191  A    between atoms: _499  and  _500
REMARK  192  A    between atoms: _505  and  _507
REMARK  193  A    between atoms: _507  and  _508
REMARK  194  A    between atoms: _507  and  _510
REMARK  195  A    between atoms: _510  and  _511
REMARK  196  A    between atoms: _511  and  _512
REMARK  197  A    between atoms: _517  and  _519
REMARK  198  A    between atoms: _519  and  _520
REMARK  199  A    between atoms: _522  and  _524
REMARK  200  A    between atoms: _524  and  _525
REMARK  201  A    between atoms: _527  and  _529
REMARK  202  A    between atoms: _529  and  _530
REMARK  203  A    between atoms: _529  and  _532
REMARK  204  A    between atoms: _532  and  _533
REMARK  205  A    between atoms: _543  and  _545
REMARK  206  A    between atoms: _545  and  _546
REMARK  207  A    between atoms: _545  and  _548
REMARK  208  A    between atoms: _548  and  _549
REMARK  209  A    between atoms: _552  and  _554
REMARK  210  A    between atoms: _554  and  _555
REMARK  211  A    between atoms: _554  and  _557
REMARK  212  A    between atoms: _557  and  _558
REMARK  213  A    between atoms: _561  and  _563
REMARK  214  A    between atoms: _563  and  _564
REMARK  215  A    between atoms: _563  and  _566
REMARK  216  A    between atoms: _566  and  _567
REMARK  217  A    between atoms: _567  and  _568
REMARK  218  A    between atoms: _568  and  _569
REMARK  219  A    between atoms: _578  and  _580
REMARK  220  A    between atoms: _580  and  _581
REMARK  221  A    between atoms: _580  and  _583
REMARK  222  A    between atoms: _583  and  _584
REMARK  223  A    between atoms: _594  and  _596
REMARK  224  A    between atoms: _596  and  _597
REMARK  225  A    between atoms: _599  and  _601
REMARK  226  A    between atoms: _601  and  _602
REMARK  227  A    between atoms: _601  and  _604
REMARK  228  A    between atoms: _604  and  _605
REMARK  229  A    between atoms: _610  and  _612
REMARK  230  A    between atoms: _612  and  _613
REMARK  231  A    between atoms: _616  and  _618
REMARK  232  A    between atoms: _618  and  _619
REMARK  233  A    between atoms: _618  and  _621
REMARK  234  A    between atoms: _621  and  _622
REMARK  235  A    between atoms: _625  and  _627
REMARK  236  A    between atoms: _627  and  _628
REMARK  237  A    between atoms: _627  and  _630
REMARK  238  A    between atoms: _630  and  _631
REMARK  239  A    between atoms: _637  and  _639
REMARK  240  A    between atoms: _639  and  _640
REMARK  241  A    between atoms: _639  and  _642
REMARK  242  A    between atoms: _642  and  _643
REMARK  243  A    between atoms: _643  and  _644
REMARK  244  A    between atoms: _647  and  _649
REMARK  245  A    between atoms: _649  and  _650
REMARK  246  A    between atoms: _649  and  _652
REMARK  247  A    between atoms: _652  and  _653
REMARK  248  A    between atoms: _653  and  _654
REMARK  249  A    between atoms: _654  and  _655
REMARK                            x       y       z     vdW  Elec       q    Type
REMARK                         _______ _______ _______ _____ _____    ______ ____
ROOT
ATOM      1  O   HOH     1      -7.718 -14.863  23.808  0.00  0.00    +0.000 OA
ENDROOT
TORSDOF 0
REMARK  Name = ../refined-set-2016/3jzj/3jzj_pocket.pdb
REMARK  249 active torsions:
REMARK  status: ('A' for Active; 'I' for Inactive)
REMARK    1  A    between atoms: _1  and  _3
REMARK    2  A    between atoms: _3  and  _4
REMARK    3  A    between atoms: _3  and  _6
REMARK    4  A    between atoms: _6  and  _7
REMARK    5  A    between atoms: _10  and  _12
REMARK    6  A    between atoms: _12  and  _13
REMARK    7  A    between atoms: _12  and  _15
REMARK    8  A    between atoms: _15  and  _16
REMARK    9  A    between atoms: _19  and  _21
REMARK   10  A    between atoms: _21  and  _22
REMARK   11  A    between atoms: _21  and  _24
REMARK   12  A    between atoms: _24  and  _25
REMARK   13  A    between atoms: _27  and  _29
REMARK   14  A    between atoms: _29  and  _30
REMARK   15  A    between atoms: _29  and  _32
REMARK   16  A    between atoms: _32  and  _33
REMARK   17  A    between atoms: _38  and  _40
REMARK   18  A    between atoms: _40  and  _41
REMARK   19  A    between atoms: _40  and  _43
REMARK   20  A    between atoms: _43  and  _44
REMARK   21  A    between atoms: _44  and  _45
REMARK   22  A    between atoms: _48  and  _50
REMARK   23  A    between atoms: _50  and  _51
REMARK   24  A    between atoms: _54  and  _56
REMARK   25  A    between atoms: _56  and  _57
REMARK   26  A    between atoms: _56  and  _59
REMARK   27  A    between atoms: _59  and  _60
REMARK   28  A    between atoms: _60  and  _61
REMARK   29  A    between atoms: _64  and  _66
REMARK   30  A    between atoms: _66  and  _67
REMARK   31  A    between atoms: _66  and  _69
REMARK   32  A    between atoms: _69  and  _70
REMARK   33  A    between atoms: _70  and  _71
REMARK   34  A    between atoms: _71  and  _72
REMARK   35  A    between atoms: _72  and  _73
REMARK   36  A    between atoms: _77  and  _79
REMARK   37  A    between atoms: _79  and  _80
REMARK   38  A    between atoms: _79  and  _82
REMARK   39  A    between atoms: _82  and  _83
REMARK   40  A    between atoms: _88  and  _89
REMARK   41  A    between atoms: _91  and  _93
REMARK   42  A    between atoms: _93  and  _94
REMARK   43  A    between atoms: _93  and  _96
REMARK   44  A    between atoms: _96  and  _97
REMARK   45  A    between atoms: _102  and  _104
REMARK   46  A    between atoms: _104  and  _105
REMARK   47  A    between atoms: _104  and  _107
REMARK   48  A    between atoms: _111  and  _112
REMARK   49  A    between atoms: _117  and  _119
REMARK   50  A    between atoms: _119  and  _120
REMARK   51  A    between atoms: _119  and  _122
REMARK   52  A    between atoms: _122  and  _123
REMARK   53  A    between atoms: _129  and  _131
REMARK   54  A    between atoms: _131  and  _132
REMARK   55  A    between atoms: _134  and  _136
REMARK   56  A    between atoms: _136  and  _137
REMARK   57  A    between atoms: _136  and  _139
REMARK   58  A    between atoms: _139  and  _140
REMARK   59  A    between atoms: _140  and  _141
REMARK   60  A    between atoms: _144  and  _146
REMARK   61  A    between atoms: _146  and  _147
REMARK   62  A    between atoms: _150  and  _152
REMARK   63  A    between atoms: _152  and  _153
REMARK   64  A    between atoms: _152  and  _155
REMARK   65  A    between atoms: _155  and  _156
REMARK   66  A    between atoms: _161  and  _163
REMARK   67  A    between atoms: _163  and  _164
REMARK   68  A    between atoms: _167  and  _169
REMARK   69  A    between atoms: _169  and  _170
REMARK   70  A    between atoms: _169  and  _172
REMARK   71  A    between atoms: _172  and  _173
REMARK   72  A    between atoms: _173  and  _174
REMARK   73  A    between atoms: _174  and  _175
REMARK   74  A    between atoms: _175  and  _176
REMARK   75  A    between atoms: _180  and  _182
REMARK   76  A    between atoms: _182  and  _183
REMARK   77  A    between atoms: _182  and  _185
REMARK   78  A    between atoms: _185  and  _186
REMARK   79  A    between atoms: _186  and  _187
REMARK   80  A    between atoms: _187  and  _188
REMARK   81  A    between atoms: _188  and  _189
REMARK   82  A    between atoms: _193  and  _195
REMARK   83  A    between atoms: _195  and  _196
REMARK   84  A    between atoms: _195  and  _198
REMARK   85  A    between atoms: _198  and  _199
REMARK   86  A    between atoms: _199  and  _200
REMARK   87  A    between atoms: _200  and  _201
REMARK   88  A    between atoms: _210  and  _212
REMARK   89  A    between atoms: _212  and  _213
REMARK   90  A    between atoms: _212  and  _215
REMARK   91  A    between atoms: _215  and  _216
REMARK   92  A    between atoms: _216  and  _217
REMARK   93  A    between atoms: _220  and  _222
REMARK   94  A    between atoms: _222  and  _223
REMARK   95  A    between atoms: _222  and  _225
REMARK   96  A    between atoms: _228  and  _230
REMARK   97  A    between atoms: _230  and  _231
REMARK   98  A    between atoms: _234  and  _236
REMARK   99  A    between atoms: _236  and  _237
REMARK  100  A    between atoms: _236  and  _239
REMARK  101  A    between atoms: _239  and  _240
REMARK  102  A    between atoms: _250  and  _252
REMARK  103  A    between atoms: _252  and  _253
REMARK  104  A    between atoms: _252  and  _255
REMARK  105  A    between atoms: _258  and  _260
REMARK  106  A    between atoms: _260  and  _261
REMARK  107  A    between atoms: _260  and  _263
REMARK  108  A    between atoms: _263  and  _264
REMARK  109  A    between atoms: _267  and  _269
REMARK  110  A    between atoms: _269  and  _270
REMARK  111  A    between atoms: _269  and  _272
REMARK  112  A    between atoms: _272  and  _273
REMARK  113  A    between atoms: _279  and  _281
REMARK  114  A    between atoms: _281  and  _282
REMARK  115  A    between atoms: _281  and  _284
REMARK  116  A    between atoms: _284  and  _285
REMARK  117  A    between atoms: _285  and  _286
REMARK  118  A    between atoms: _291  and  _293
REMARK  119  A    between atoms: _293  and  _294
REMARK  120  A    between atoms: _293  and  _296
REMARK  121  A    between atoms: _299  and  _301
REMARK  122  A    between atoms: _301  and  _302
REMARK  123  A    between atoms: _301  and  _304
REMARK  124  A    between atoms: _304  and  _305
REMARK  125  A    between atoms: _308  and  _310
REMARK  126  A    between atoms: _310  and  _311
REMARK  127  A    between atoms: _310  and  _313
REMARK  128  A    between atoms: _313  and  _314
REMARK  129  A    between atoms: _317  and  _319
REMARK  130  A    between atoms: _319  and  _320
REMARK  131  A    between atoms: _319  and  _322
REMARK  132  A    between atoms: _322  and  _323
REMARK  133  A    between atoms: _326  and  _328
REMARK  134  A    between atoms: _328  and  _329
REMARK  135  A    between atoms: _328  and  _331
REMARK  136  A    between atoms: _331  and  _332
REMARK  137  A    between atoms: _335  and  _337
REMARK  138  A    between atoms: _337  and  _338
REMARK  139  A    between atoms: _337  and  _340
REMARK  140  A    between atoms: _340  and  _341
REMARK  141  A    between atoms: _341  and  _342
REMARK  142  A    between atoms: _342  and  _343
REMARK  143  A    between atoms: _352  and  _354
REMARK  144  A    between atoms: _354  and  _355
REMARK  145  A    between atoms: _354  and  _357
REMARK  146  A    between atoms: _357  and  _358
REMARK  147  A    between atoms: _361  and  _363
REMARK  148  A    between atoms: _363  and  _364
REMARK  149  A    between atoms: _363  and  _366
REMARK  150  A    between atoms: _366  and  _367
REMARK  151  A    between atoms: _371  and  _372
REMARK  152  A    between atoms: _377  and  _379
REMARK  153  A    between atoms: _379  and  _380
REMARK  154  A    between atoms: _379  and  _382
REMARK  155  A    between atoms: _382  and  _383
REMARK  156  A    between atoms: _388  and  _389
REMARK  157  A    between atoms: _391  and  _393
REMARK  158  A    between atoms: _393  and  _394
REMARK  159  A    between atoms: _393  and  _396
REMARK  160  A    between atoms: _396  and  _397
REMARK  161  A    between atoms: _407  and  _409
REMARK  162  A    between atoms: _409  and  _410
REMARK  163  A    between atoms: _409  and  _412
REMARK  164  A    between atoms: _412  and  _413
REMARK  165  A    between atoms: _419  and  _421
REMARK  166  A    between atoms: _421  and  _422
REMARK  167  A    between atoms: _421  and  _424
REMARK  168  A    between atoms: _424  and  _425
REMARK  169  A    between atoms: _428  and  _430
REMARK  170  A    between atoms: _430  and  _431
REMARK  171  A    between atoms: _430  and  _433
REMARK  172  A    between atoms: _433  and  _434
REMARK  173  A    between atoms: _444  and  _446
REMARK  174  A    between atoms: _446  and  _447
REMARK  175  A    between atoms: _446  and  _449
REMARK  176  A    between atoms: _449  and  _450
REMARK  177  A    between atoms: _450  and  _451
REMARK  178  A    between atoms: _453  and  _455
REMARK  179  A    between atoms: _455  and  _456
REMARK  180  A    between atoms: _455  and  _458
REMARK  181  A    between atoms: _458  and  _459
REMARK  182  A    between atoms: _464  and  _466
REMARK  183  A    between atoms: _466  and  _467
REMARK  184  A    between atoms: _470  and  _471
REMARK  185  A    between atoms: _476  and  _478
REMARK  186  A    between atoms: _478  and  _479
REMARK  187  A    between atoms: _478  and  _481
REMARK  188  A    between atoms: _481  and  _482
REMARK  189  A    between atoms: _492  and  _494
REMARK  190  A    between atoms: _494  and  _495
REMARK  191  A    between atoms: _499  and  _500
REMARK  192  A    between atoms: _505  and  _507
REMARK  193  A    between atoms: _507  and  _508
REMARK  194  A    between atoms: _507  and  _510
REMARK  195  A    between atoms: _510  and  _511
REMARK  196  A    between atoms: _511  and  _512
REMARK  197  A    between atoms: _517  and  _519
REMARK  198  A    between atoms: _519  and  _520
REMARK  199  A    between atoms: _522  and  _524
REMARK  200  A    between atoms: _524  and  _525
REMARK  201  A    between atoms: _527  and  _529
REMARK  202  A    between atoms: _529  and  _530
REMARK  203  A    between atoms: _529  and  _532
REMARK  204  A    between atoms: _532  and  _533
REMARK  205  A    between atoms: _543  and  _545
REMARK  206  A    between atoms: _545  and  _546
REMARK  207  A    between atoms: _545  and  _548
REMARK  208  A    between atoms: _548  and  _549
REMARK  209  A    between atoms: _552  and  _554
REMARK  210  A    between atoms: _554  and  _555
REMARK  211  A    between atoms: _554  and  _557
REMARK  212  A    between atoms: _557  and  _558
REMARK  213  A    between atoms: _561  and  _563
REMARK  214  A    between atoms: _563  and  _564
REMARK  215  A    between atoms: _563  and  _566
REMARK  216  A    between atoms: _566  and  _567
REMARK  217  A    between atoms: _567  and  _568
REMARK  218  A    between atoms: _568  and  _569
REMARK  219  A    between atoms: _578  and  _580
REMARK  220  A    between atoms: _580  and  _581
REMARK  221  A    between atoms: _580  and  _583
REMARK  222  A    between atoms: _583  and  _584
REMARK  223  A    between atoms: _594  and  _596
REMARK  224  A    between atoms: _596  and  _597
REMARK  225  A    between atoms: _599  and  _601
REMARK  226  A    between atoms: _601  and  _602
REMARK  227  A    between atoms: _601  and  _604
REMARK  228  A    between atoms: _604  and  _605
REMARK  229  A    between atoms: _610  and  _612
REMARK  230  A    between atoms: _612  and  _613
REMARK  231  A    between atoms: _616  and  _618
REMARK  232  A    between atoms: _618  and  _619
REMARK  233  A    between atoms: _618  and  _621
REMARK  234  A    between atoms: _621  and  _622
REMARK  235  A    between atoms: _625  and  _627
REMARK  236  A    between atoms: _627  and  _628
REMARK  237  A    between atoms: _627  and  _630
REMARK  238  A    between atoms: _630  and  _631
REMARK  239  A    between atoms: _637  and  _639
REMARK  240  A    between atoms: _639  and  _640
REMARK  241  A    between atoms: _639  and  _642
REMARK  242  A    between atoms: _642  and  _643
REMARK  243  A    between atoms: _643  and  _644
REMARK  244  A    between atoms: _647  and  _649
REMARK  245  A    between atoms: _649  and  _650
REMARK  246  A    between atoms: _649  and  _652
REMARK  247  A    between atoms: _652  and  _653
REMARK  248  A    between atoms: _653  and  _654
REMARK  249  A    between atoms: _654  and  _655
REMARK                            x       y       z     vdW  Elec       q    Type
REMARK                         _______ _______ _______ _____ _____    ______ ____
ROOT
ATOM      1  O   HOH     1       2.710 -13.853  26.520  0.00  0.00    +0.000 OA
ENDROOT
TORSDOF 0
REMARK  Name = ../refined-set-2016/3jzj/3jzj_pocket.pdb
REMARK  249 active torsions:
REMARK  status: ('A' for Active; 'I' for Inactive)
REMARK    1  A    between atoms: _1  and  _3
REMARK    2  A    between atoms: _3  and  _4
REMARK    3  A    between atoms: _3  and  _6
REMARK    4  A    between atoms: _6  and  _7
REMARK    5  A    between atoms: _10  and  _12
REMARK    6  A    between atoms: _12  and  _13
REMARK    7  A    between atoms: _12  and  _15
REMARK    8  A    between atoms: _15  and  _16
REMARK    9  A    between atoms: _19  and  _21
REMARK   10  A    between atoms: _21  and  _22
REMARK   11  A    between atoms: _21  and  _24
REMARK   12  A    between atoms: _24  and  _25
REMARK   13  A    between atoms: _27  and  _29
REMARK   14  A    between atoms: _29  and  _30
REMARK   15  A    between atoms: _29  and  _32
REMARK   16  A    between atoms: _32  and  _33
REMARK   17  A    between atoms: _38  and  _40
REMARK   18  A    between atoms: _40  and  _41
REMARK   19  A    between atoms: _40  and  _43
REMARK   20  A    between atoms: _43  and  _44
REMARK   21  A    between atoms: _44  and  _45
REMARK   22  A    between atoms: _48  and  _50
REMARK   23  A    between atoms: _50  and  _51
REMARK   24  A    between atoms: _54  and  _56
REMARK   25  A    between atoms: _56  and  _57
REMARK   26  A    between atoms: _56  and  _59
REMARK   27  A    between atoms: _59  and  _60
REMARK   28  A    between atoms: _60  and  _61
REMARK   29  A    between atoms: _64  and  _66
REMARK   30  A    between atoms: _66  and  _67
REMARK   31  A    between atoms: _66  and  _69
REMARK   32  A    between atoms: _69  and  _70
REMARK   33  A    between atoms: _70  and  _71
REMARK   34  A    between atoms: _71  and  _72
REMARK   35  A    between atoms: _72  and  _73
REMARK   36  A    between atoms: _77  and  _79
REMARK   37  A    between atoms: _79  and  _80
REMARK   38  A    between atoms: _79  and  _82
REMARK   39  A    between atoms: _82  and  _83
REMARK   40  A    between atoms: _88  and  _89
REMARK   41  A    between atoms: _91  and  _93
REMARK   42  A    between atoms: _93  and  _94
REMARK   43  A    between atoms: _93  and  _96
REMARK   44  A    between atoms: _96  and  _97
REMARK   45  A    between atoms: _102  and  _104
REMARK   46  A    between atoms: _104  and  _105
REMARK   47  A    between atoms: _104  and  _107
REMARK   48  A    between atoms: _111  and  _112
REMARK   49  A    between atoms: _117  and  _119
REMARK   50  A    between atoms: _119  and  _120
REMARK   51  A    between atoms: _119  and  _122
REMARK   52  A    between atoms: _122  and  _123
REMARK   53  A    between atoms: _129  and  _131
REMARK   54  A    between atoms: _131  and  _132
REMARK   55  A    between atoms: _134  and  _136
REMARK   56  A    between atoms: _136  and  _137
REMARK   57  A    between atoms: _136  and  _139
REMARK   58  A    between atoms: _139  and  _140
REMARK   59  A    between atoms: _140  and  _141
REMARK   60  A    between atoms: _144  and  _146
REMARK   61  A    between atoms: _146  and  _147
REMARK   62  A    between atoms: _150  and  _152
REMARK   63  A    between atoms: _152  and  _153
REMARK   64  A    between atoms: _152  and  _155
REMARK   65  A    between atoms: _155  and  _156
REMARK   66  A    between atoms: _161  and  _163
REMARK   67  A    between atoms: _163  and  _164
REMARK   68  A    between atoms: _167  and  _169
REMARK   69  A    between atoms: _169  and  _170
REMARK   70  A    between atoms: _169  and  _172
REMARK   71  A    between atoms: _172  and  _173
REMARK   72  A    between atoms: _173  and  _174
REMARK   73  A    between atoms: _174  and  _175
REMARK   74  A    between atoms: _175  and  _176
REMARK   75  A    between atoms: _180  and  _182
REMARK   76  A    between atoms: _182  and  _183
REMARK   77  A    between atoms: _182  and  _185
REMARK   78  A    between atoms: _185  and  _186
REMARK   79  A    between atoms: _186  and  _187
REMARK   80  A    between atoms: _187  and  _188
REMARK   81  A    between atoms: _188  and  _189
REMARK   82  A    between atoms: _193  and  _195
REMARK   83  A    between atoms: _195  and  _196
REMARK   84  A    between atoms: _195  and  _198
REMARK   85  A    between atoms: _198  and  _199
REMARK   86  A    between atoms: _199  and  _200
REMARK   87  A    between atoms: _200  and  _201
REMARK   88  A    between atoms: _210  and  _212
REMARK   89  A    between atoms: _212  and  _213
REMARK   90  A    between atoms: _212  and  _215
REMARK   91  A    between atoms: _215  and  _216
REMARK   92  A    between atoms: _216  and  _217
REMARK   93  A    between atoms: _220  and  _222
REMARK   94  A    between atoms: _222  and  _223
REMARK   95  A    between atoms: _222  and  _225
REMARK   96  A    between atoms: _228  and  _230
REMARK   97  A    between atoms: _230  and  _231
REMARK   98  A    between atoms: _234  and  _236
REMARK   99  A    between atoms: _236  and  _237
REMARK  100  A    between atoms: _236  and  _239
REMARK  101  A    between atoms: _239  and  _240
REMARK  102  A    between atoms: _250  and  _252
REMARK  103  A    between atoms: _252  and  _253
REMARK  104  A    between atoms: _252  and  _255
REMARK  105  A    between atoms: _258  and  _260
REMARK  106  A    between atoms: _260  and  _261
REMARK  107  A    between atoms: _260  and  _263
REMARK  108  A    between atoms: _263  and  _264
REMARK  109  A    between atoms: _267  and  _269
REMARK  110  A    between atoms: _269  and  _270
REMARK  111  A    between atoms: _269  and  _272
REMARK  112  A    between atoms: _272  and  _273
REMARK  113  A    between atoms: _279  and  _281
REMARK  114  A    between atoms: _281  and  _282
REMARK  115  A    between atoms: _281  and  _284
REMARK  116  A    between atoms: _284  and  _285
REMARK  117  A    between atoms: _285  and  _286
REMARK  118  A    between atoms: _291  and  _293
REMARK  119  A    between atoms: _293  and  _294
REMARK  120  A    between atoms: _293  and  _296
REMARK  121  A    between atoms: _299  and  _301
REMARK  122  A    between atoms: _301  and  _302
REMARK  123  A    between atoms: _301  and  _304
REMARK  124  A    between atoms: _304  and  _305
REMARK  125  A    between atoms: _308  and  _310
REMARK  126  A    between atoms: _310  and  _311
REMARK  127  A    between atoms: _310  and  _313
REMARK  128  A    between atoms: _313  and  _314
REMARK  129  A    between atoms: _317  and  _319
REMARK  130  A    between atoms: _319  and  _320
REMARK  131  A    between atoms: _319  and  _322
REMARK  132  A    between atoms: _322  and  _323
REMARK  133  A    between atoms: _326  and  _328
REMARK  134  A    between atoms: _328  and  _329
REMARK  135  A    between atoms: _328  and  _331
REMARK  136  A    between atoms: _331  and  _332
REMARK  137  A    between atoms: _335  and  _337
REMARK  138  A    between atoms: _337  and  _338
REMARK  139  A    between atoms: _337  and  _340
REMARK  140  A    between atoms: _340  and  _341
REMARK  141  A    between atoms: _341  and  _342
REMARK  142  A    between atoms: _342  and  _343
REMARK  143  A    between atoms: _352  and  _354
REMARK  144  A    between atoms: _354  and  _355
REMARK  145  A    between atoms: _354  and  _357
REMARK  146  A    between atoms: _357  and  _358
REMARK  147  A    between atoms: _361  and  _363
REMARK  148  A    between atoms: _363  and  _364
REMARK  149  A    between atoms: _363  and  _366
REMARK  150  A    between atoms: _366  and  _367
REMARK  151  A    between atoms: _371  and  _372
REMARK  152  A    between atoms: _377  and  _379
REMARK  153  A    between atoms: _379  and  _380
REMARK  154  A    between atoms: _379  and  _382
REMARK  155  A    between atoms: _382  and  _383
REMARK  156  A    between atoms: _388  and  _389
REMARK  157  A    between atoms: _391  and  _393
REMARK  158  A    between atoms: _393  and  _394
REMARK  159  A    between atoms: _393  and  _396
REMARK  160  A    between atoms: _396  and  _397
REMARK  161  A    between atoms: _407  and  _409
REMARK  162  A    between atoms: _409  and  _410
REMARK  163  A    between atoms: _409  and  _412
REMARK  164  A    between atoms: _412  and  _413
REMARK  165  A    between atoms: _419  and  _421
REMARK  166  A    between atoms: _421  and  _422
REMARK  167  A    between atoms: _421  and  _424
REMARK  168  A    between atoms: _424  and  _425
REMARK  169  A    between atoms: _428  and  _430
REMARK  170  A    between atoms: _430  and  _431
REMARK  171  A    between atoms: _430  and  _433
REMARK  172  A    between atoms: _433  and  _434
REMARK  173  A    between atoms: _444  and  _446
REMARK  174  A    between atoms: _446  and  _447
REMARK  175  A    between atoms: _446  and  _449
REMARK  176  A    between atoms: _449  and  _450
REMARK  177  A    between atoms: _450  and  _451
REMARK  178  A    between atoms: _453  and  _455
REMARK  179  A    between atoms: _455  and  _456
REMARK  180  A    between atoms: _455  and  _458
REMARK  181  A    between atoms: _458  and  _459
REMARK  182  A    between atoms: _464  and  _466
REMARK  183  A    between atoms: _466  and  _467
REMARK  184  A    between atoms: _470  and  _471
REMARK  185  A    between atoms: _476  and  _478
REMARK  186  A    between atoms: _478  and  _479
REMARK  187  A    between atoms: _478  and  _481
REMARK  188  A    between atoms: _481  and  _482
REMARK  189  A    between atoms: _492  and  _494
REMARK  190  A    between atoms: _494  and  _495
REMARK  191  A    between atoms: _499  and  _500
REMARK  192  A    between atoms: _505  and  _507
REMARK  193  A    between atoms: _507  and  _508
REMARK  194  A    between atoms: _507  and  _510
REMARK  195  A    between atoms: _510  and  _511
REMARK  196  A    between atoms: _511  and  _512
REMARK  197  A    between atoms: _517  and  _519
REMARK  198  A    between atoms: _519  and  _520
REMARK  199  A    between atoms: _522  and  _524
REMARK  200  A    between atoms: _524  and  _525
REMARK  201  A    between atoms: _527  and  _529
REMARK  202  A    between atoms: _529  and  _530
REMARK  203  A    between atoms: _529  and  _532
REMARK  204  A    between atoms: _532  and  _533
REMARK  205  A    between atoms: _543  and  _545
REMARK  206  A    between atoms: _545  and  _546
REMARK  207  A    between atoms: _545  and  _548
REMARK  208  A    between atoms: _548  and  _549
REMARK  209  A    between atoms: _552  and  _554
REMARK  210  A    between atoms: _554  and  _555
REMARK  211  A    between atoms: _554  and  _557
REMARK  212  A    between atoms: _557  and  _558
REMARK  213  A    between atoms: _561  and  _563
REMARK  214  A    between atoms: _563  and  _564
REMARK  215  A    between atoms: _563  and  _566
REMARK  216  A    between atoms: _566  and  _567
REMARK  217  A    between atoms: _567  and  _568
REMARK  218  A    between atoms: _568  and  _569
REMARK  219  A    between atoms: _578  and  _580
REMARK  220  A    between atoms: _580  and  _581
REMARK  221  A    between atoms: _580  and  _583
REMARK  222  A    between atoms: _583  and  _584
REMARK  223  A    between atoms: _594  and  _596
REMARK  224  A    between atoms: _596  and  _597
REMARK  225  A    between atoms: _599  and  _601
REMARK  226  A    between atoms: _601  and  _602
REMARK  227  A    between atoms: _601  and  _604
REMARK  228  A    between atoms: _604  and  _605
REMARK  229  A    between atoms: _610  and  _612
REMARK  230  A    between atoms: _612  and  _613
REMARK  231  A    between atoms: _616  and  _618
REMARK  232  A    between atoms: _618  and  _619
REMARK  233  A    between atoms: _618  and  _621
REMARK  234  A    between atoms: _621  and  _622
REMARK  235  A    between atoms: _625  and  _627
REMARK  236  A    between atoms: _627  and  _628
REMARK  237  A    between atoms: _627  and  _630
REMARK  238  A    between atoms: _630  and  _631
REMARK  239  A    between atoms: _637  and  _639
REMARK  240  A    between atoms: _639  and  _640
REMARK  241  A    between atoms: _639  and  _642
REMARK  242  A    between atoms: _642  and  _643
REMARK  243  A    between atoms: _643  and  _644
REMARK  244  A    between atoms: _647  and  _649
REMARK  245  A    between atoms: _649  and  _650
REMARK  246  A    between atoms: _649  and  _652
REMARK  247  A    between atoms: _652  and  _653
REMARK  248  A    between atoms: _653  and  _654
REMARK  249  A    between atoms: _654  and  _655
REMARK                            x       y       z     vdW  Elec       q    Type
REMARK                         _______ _______ _______ _____ _____    ______ ____
ROOT
ATOM      1  O   HOH     1      -5.134   5.899  14.458  0.00  0.00    +0.000 OA
ENDROOT
TORSDOF 0
REMARK  Name = ../refined-set-2016/3jzj/3jzj_pocket.pdb
REMARK  249 active torsions:
REMARK  status: ('A' for Active; 'I' for Inactive)
REMARK    1  A    between atoms: _1  and  _3
REMARK    2  A    between atoms: _3  and  _4
REMARK    3  A    between atoms: _3  and  _6
REMARK    4  A    between atoms: _6  and  _7
REMARK    5  A    between atoms: _10  and  _12
REMARK    6  A    between atoms: _12  and  _13
REMARK    7  A    between atoms: _12  and  _15
REMARK    8  A    between atoms: _15  and  _16
REMARK    9  A    between atoms: _19  and  _21
REMARK   10  A    between atoms: _21  and  _22
REMARK   11  A    between atoms: _21  and  _24
REMARK   12  A    between atoms: _24  and  _25
REMARK   13  A    between atoms: _27  and  _29
REMARK   14  A    between atoms: _29  and  _30
REMARK   15  A    between atoms: _29  and  _32
REMARK   16  A    between atoms: _32  and  _33
REMARK   17  A    between atoms: _38  and  _40
REMARK   18  A    between atoms: _40  and  _41
REMARK   19  A    between atoms: _40  and  _43
REMARK   20  A    between atoms: _43  and  _44
REMARK   21  A    between atoms: _44  and  _45
REMARK   22  A    between atoms: _48  and  _50
REMARK   23  A    between atoms: _50  and  _51
REMARK   24  A    between atoms: _54  and  _56
REMARK   25  A    between atoms: _56  and  _57
REMARK   26  A    between atoms: _56  and  _59
REMARK   27  A    between atoms: _59  and  _60
REMARK   28  A    between atoms: _60  and  _61
REMARK   29  A    between atoms: _64  and  _66
REMARK   30  A    between atoms: _66  and  _67
REMARK   31  A    between atoms: _66  and  _69
REMARK   32  A    between atoms: _69  and  _70
REMARK   33  A    between atoms: _70  and  _71
REMARK   34  A    between atoms: _71  and  _72
REMARK   35  A    between atoms: _72  and  _73
REMARK   36  A    between atoms: _77  and  _79
REMARK   37  A    between atoms: _79  and  _80
REMARK   38  A    between atoms: _79  and  _82
REMARK   39  A    between atoms: _82  and  _83
REMARK   40  A    between atoms: _88  and  _89
REMARK   41  A    between atoms: _91  and  _93
REMARK   42  A    between atoms: _93  and  _94
REMARK   43  A    between atoms: _93  and  _96
REMARK   44  A    between atoms: _96  and  _97
REMARK   45  A    between atoms: _102  and  _104
REMARK   46  A    between atoms: _104  and  _105
REMARK   47  A    between atoms: _104  and  _107
REMARK   48  A    between atoms: _111  and  _112
REMARK   49  A    between atoms: _117  and  _119
REMARK   50  A    between atoms: _119  and  _120
REMARK   51  A    between atoms: _119  and  _122
REMARK   52  A    between atoms: _122  and  _123
REMARK   53  A    between atoms: _129  and  _131
REMARK   54  A    between atoms: _131  and  _132
REMARK   55  A    between atoms: _134  and  _136
REMARK   56  A    between atoms: _136  and  _137
REMARK   57  A    between atoms: _136  and  _139
REMARK   58  A    between atoms: _139  and  _140
REMARK   59  A    between atoms: _140  and  _141
REMARK   60  A    between atoms: _144  and  _146
REMARK   61  A    between atoms: _146  and  _147
REMARK   62  A    between atoms: _150  and  _152
REMARK   63  A    between atoms: _152  and  _153
REMARK   64  A    between atoms: _152  and  _155
REMARK   65  A    between atoms: _155  and  _156
REMARK   66  A    between atoms: _161  and  _163
REMARK   67  A    between atoms: _163  and  _164
REMARK   68  A    between atoms: _167  and  _169
REMARK   69  A    between atoms: _169  and  _170
REMARK   70  A    between atoms: _169  and  _172
REMARK   71  A    between atoms: _172  and  _173
REMARK   72  A    between atoms: _173  and  _174
REMARK   73  A    between atoms: _174  and  _175
REMARK   74  A    between atoms: _175  and  _176
REMARK   75  A    between atoms: _180  and  _182
REMARK   76  A    between atoms: _182  and  _183
REMARK   77  A    between atoms: _182  and  _185
REMARK   78  A    between atoms: _185  and  _186
REMARK   79  A    between atoms: _186  and  _187
REMARK   80  A    between atoms: _187  and  _188
REMARK   81  A    between atoms: _188  and  _189
REMARK   82  A    between atoms: _193  and  _195
REMARK   83  A    between atoms: _195  and  _196
REMARK   84  A    between atoms: _195  and  _198
REMARK   85  A    between atoms: _198  and  _199
REMARK   86  A    between atoms: _199  and  _200
REMARK   87  A    between atoms: _200  and  _201
REMARK   88  A    between atoms: _210  and  _212
REMARK   89  A    between atoms: _212  and  _213
REMARK   90  A    between atoms: _212  and  _215
REMARK   91  A    between atoms: _215  and  _216
REMARK   92  A    between atoms: _216  and  _217
REMARK   93  A    between atoms: _220  and  _222
REMARK   94  A    between atoms: _222  and  _223
REMARK   95  A    between atoms: _222  and  _225
REMARK   96  A    between atoms: _228  and  _230
REMARK   97  A    between atoms: _230  and  _231
REMARK   98  A    between atoms: _234  and  _236
REMARK   99  A    between atoms: _236  and  _237
REMARK  100  A    between atoms: _236  and  _239
REMARK  101  A    between atoms: _239  and  _240
REMARK  102  A    between atoms: _250  and  _252
REMARK  103  A    between atoms: _252  and  _253
REMARK  104  A    between atoms: _252  and  _255
REMARK  105  A    between atoms: _258  and  _260
REMARK  106  A    between atoms: _260  and  _261
REMARK  107  A    between atoms: _260  and  _263
REMARK  108  A    between atoms: _263  and  _264
REMARK  109  A    between atoms: _267  and  _269
REMARK  110  A    between atoms: _269  and  _270
REMARK  111  A    between atoms: _269  and  _272
REMARK  112  A    between atoms: _272  and  _273
REMARK  113  A    between atoms: _279  and  _281
REMARK  114  A    between atoms: _281  and  _282
REMARK  115  A    between atoms: _281  and  _284
REMARK  116  A    between atoms: _284  and  _285
REMARK  117  A    between atoms: _285  and  _286
REMARK  118  A    between atoms: _291  and  _293
REMARK  119  A    between atoms: _293  and  _294
REMARK  120  A    between atoms: _293  and  _296
REMARK  121  A    between atoms: _299  and  _301
REMARK  122  A    between atoms: _301  and  _302
REMARK  123  A    between atoms: _301  and  _304
REMARK  124  A    between atoms: _304  and  _305
REMARK  125  A    between atoms: _308  and  _310
REMARK  126  A    between atoms: _310  and  _311
REMARK  127  A    between atoms: _310  and  _313
REMARK  128  A    between atoms: _313  and  _314
REMARK  129  A    between atoms: _317  and  _319
REMARK  130  A    between atoms: _319  and  _320
REMARK  131  A    between atoms: _319  and  _322
REMARK  132  A    between atoms: _322  and  _323
REMARK  133  A    between atoms: _326  and  _328
REMARK  134  A    between atoms: _328  and  _329
REMARK  135  A    between atoms: _328  and  _331
REMARK  136  A    between atoms: _331  and  _332
REMARK  137  A    between atoms: _335  and  _337
REMARK  138  A    between atoms: _337  and  _338
REMARK  139  A    between atoms: _337  and  _340
REMARK  140  A    between atoms: _340  and  _341
REMARK  141  A    between atoms: _341  and  _342
REMARK  142  A    between atoms: _342  and  _343
REMARK  143  A    between atoms: _352  and  _354
REMARK  144  A    between atoms: _354  and  _355
REMARK  145  A    between atoms: _354  and  _357
REMARK  146  A    between atoms: _357  and  _358
REMARK  147  A    between atoms: _361  and  _363
REMARK  148  A    between atoms: _363  and  _364
REMARK  149  A    between atoms: _363  and  _366
REMARK  150  A    between atoms: _366  and  _367
REMARK  151  A    between atoms: _371  and  _372
REMARK  152  A    between atoms: _377  and  _379
REMARK  153  A    between atoms: _379  and  _380
REMARK  154  A    between atoms: _379  and  _382
REMARK  155  A    between atoms: _382  and  _383
REMARK  156  A    between atoms: _388  and  _389
REMARK  157  A    between atoms: _391  and  _393
REMARK  158  A    between atoms: _393  and  _394
REMARK  159  A    between atoms: _393  and  _396
REMARK  160  A    between atoms: _396  and  _397
REMARK  161  A    between atoms: _407  and  _409
REMARK  162  A    between atoms: _409  and  _410
REMARK  163  A    between atoms: _409  and  _412
REMARK  164  A    between atoms: _412  and  _413
REMARK  165  A    between atoms: _419  and  _421
REMARK  166  A    between atoms: _421  and  _422
REMARK  167  A    between atoms: _421  and  _424
REMARK  168  A    between atoms: _424  and  _425
REMARK  169  A    between atoms: _428  and  _430
REMARK  170  A    between atoms: _430  and  _431
REMARK  171  A    between atoms: _430  and  _433
REMARK  172  A    between atoms: _433  and  _434
REMARK  173  A    between atoms: _444  and  _446
REMARK  174  A    between atoms: _446  and  _447
REMARK  175  A    between atoms: _446  and  _449
REMARK  176  A    between atoms: _449  and  _450
REMARK  177  A    between atoms: _450  and  _451
REMARK  178  A    between atoms: _453  and  _455
REMARK  179  A    between atoms: _455  and  _456
REMARK  180  A    between atoms: _455  and  _458
REMARK  181  A    between atoms: _458  and  _459
REMARK  182  A    between atoms: _464  and  _466
REMARK  183  A    between atoms: _466  and  _467
REMARK  184  A    between atoms: _470  and  _471
REMARK  185  A    between atoms: _476  and  _478
REMARK  186  A    between atoms: _478  and  _479
REMARK  187  A    between atoms: _478  and  _481
REMARK  188  A    between atoms: _481  and  _482
REMARK  189  A    between atoms: _492  and  _494
REMARK  190  A    between atoms: _494  and  _495
REMARK  191  A    between atoms: _499  and  _500
REMARK  192  A    between atoms: _505  and  _507
REMARK  193  A    between atoms: _507  and  _508
REMARK  194  A    between atoms: _507  and  _510
REMARK  195  A    between atoms: _510  and  _511
REMARK  196  A    between atoms: _511  and  _512
REMARK  197  A    between atoms: _517  and  _519
REMARK  198  A    between atoms: _519  and  _520
REMARK  199  A    between atoms: _522  and  _524
REMARK  200  A    between atoms: _524  and  _525
REMARK  201  A    between atoms: _527  and  _529
REMARK  202  A    between atoms: _529  and  _530
REMARK  203  A    between atoms: _529  and  _532
REMARK  204  A    between atoms: _532  and  _533
REMARK  205  A    between atoms: _543  and  _545
REMARK  206  A    between atoms: _545  and  _546
REMARK  207  A    between atoms: _545  and  _548
REMARK  208  A    between atoms: _548  and  _549
REMARK  209  A    between atoms: _552  and  _554
REMARK  210  A    between atoms: _554  and  _555
REMARK  211  A    between atoms: _554  and  _557
REMARK  212  A    between atoms: _557  and  _558
REMARK  213  A    between atoms: _561  and  _563
REMARK  214  A    between atoms: _563  and  _564
REMARK  215  A    between atoms: _563  and  _566
REMARK  216  A    between atoms: _566  and  _567
REMARK  217  A    between atoms: _567  and  _568
REMARK  218  A    between atoms: _568  and  _569
REMARK  219  A    between atoms: _578  and  _580
REMARK  220  A    between atoms: _580  and  _581
REMARK  221  A    between atoms: _580  and  _583
REMARK  222  A    between atoms: _583  and  _584
REMARK  223  A    between atoms: _594  and  _596
REMARK  224  A    between atoms: _596  and  _597
REMARK  225  A    between atoms: _599  and  _601
REMARK  226  A    between atoms: _601  and  _602
REMARK  227  A    between atoms: _601  and  _604
REMARK  228  A    between atoms: _604  and  _605
REMARK  229  A    between atoms: _610  and  _612
REMARK  230  A    between atoms: _612  and  _613
REMARK  231  A    between atoms: _616  and  _618
REMARK  232  A    between atoms: _618  and  _619
REMARK  233  A    between atoms: _618  and  _621
REMARK  234  A    between atoms: _621  and  _622
REMARK  235  A    between atoms: _625  and  _627
REMARK  236  A    between atoms: _627  and  _628
REMARK  237  A    between atoms: _627  and  _630
REMARK  238  A    between atoms: _630  and  _631
REMARK  239  A    between atoms: _637  and  _639
REMARK  240  A    between atoms: _639  and  _640
REMARK  241  A    between atoms: _639  and  _642
REMARK  242  A    between atoms: _642  and  _643
REMARK  243  A    between atoms: _643  and  _644
REMARK  244  A    between atoms: _647  and  _649
REMARK  245  A    between atoms: _649  and  _650
REMARK  246  A    between atoms: _649  and  _652
REMARK  247  A    between atoms: _652  and  _653
REMARK  248  A    between atoms: _653  and  _654
REMARK  249  A    between atoms: _654  and  _655
REMARK                            x       y       z     vdW  Elec       q    Type
REMARK                         _______ _______ _______ _____ _____    ______ ____
ROOT
ATOM      1  O   HOH     1     -10.246 -13.531  23.551  0.00  0.00    +0.000 OA
ENDROOT
TORSDOF 0
REMARK  Name = ../refined-set-2016/3jzj/3jzj_pocket.pdb
REMARK  249 active torsions:
REMARK  status: ('A' for Active; 'I' for Inactive)
REMARK    1  A    between atoms: _1  and  _3
REMARK    2  A    between atoms: _3  and  _4
REMARK    3  A    between atoms: _3  and  _6
REMARK    4  A    between atoms: _6  and  _7
REMARK    5  A    between atoms: _10  and  _12
REMARK    6  A    between atoms: _12  and  _13
REMARK    7  A    between atoms: _12  and  _15
REMARK    8  A    between atoms: _15  and  _16
REMARK    9  A    between atoms: _19  and  _21
REMARK   10  A    between atoms: _21  and  _22
REMARK   11  A    between atoms: _21  and  _24
REMARK   12  A    between atoms: _24  and  _25
REMARK   13  A    between atoms: _27  and  _29
REMARK   14  A    between atoms: _29  and  _30
REMARK   15  A    between atoms: _29  and  _32
REMARK   16  A    between atoms: _32  and  _33
REMARK   17  A    between atoms: _38  and  _40
REMARK   18  A    between atoms: _40  and  _41
REMARK   19  A    between atoms: _40  and  _43
REMARK   20  A    between atoms: _43  and  _44
REMARK   21  A    between atoms: _44  and  _45
REMARK   22  A    between atoms: _48  and  _50
REMARK   23  A    between atoms: _50  and  _51
REMARK   24  A    between atoms: _54  and  _56
REMARK   25  A    between atoms: _56  and  _57
REMARK   26  A    between atoms: _56  and  _59
REMARK   27  A    between atoms: _59  and  _60
REMARK   28  A    between atoms: _60  and  _61
REMARK   29  A    between atoms: _64  and  _66
REMARK   30  A    between atoms: _66  and  _67
REMARK   31  A    between atoms: _66  and  _69
REMARK   32  A    between atoms: _69  and  _70
REMARK   33  A    between atoms: _70  and  _71
REMARK   34  A    between atoms: _71  and  _72
REMARK   35  A    between atoms: _72  and  _73
REMARK   36  A    between atoms: _77  and  _79
REMARK   37  A    between atoms: _79  and  _80
REMARK   38  A    between atoms: _79  and  _82
REMARK   39  A    between atoms: _82  and  _83
REMARK   40  A    between atoms: _88  and  _89
REMARK   41  A    between atoms: _91  and  _93
REMARK   42  A    between atoms: _93  and  _94
REMARK   43  A    between atoms: _93  and  _96
REMARK   44  A    between atoms: _96  and  _97
REMARK   45  A    between atoms: _102  and  _104
REMARK   46  A    between atoms: _104  and  _105
REMARK   47  A    between atoms: _104  and  _107
REMARK   48  A    between atoms: _111  and  _112
REMARK   49  A    between atoms: _117  and  _119
REMARK   50  A    between atoms: _119  and  _120
REMARK   51  A    between atoms: _119  and  _122
REMARK   52  A    between atoms: _122  and  _123
REMARK   53  A    between atoms: _129  and  _131
REMARK   54  A    between atoms: _131  and  _132
REMARK   55  A    between atoms: _134  and  _136
REMARK   56  A    between atoms: _136  and  _137
REMARK   57  A    between atoms: _136  and  _139
REMARK   58  A    between atoms: _139  and  _140
REMARK   59  A    between atoms: _140  and  _141
REMARK   60  A    between atoms: _144  and  _146
REMARK   61  A    between atoms: _146  and  _147
REMARK   62  A    between atoms: _150  and  _152
REMARK   63  A    between atoms: _152  and  _153
REMARK   64  A    between atoms: _152  and  _155
REMARK   65  A    between atoms: _155  and  _156
REMARK   66  A    between atoms: _161  and  _163
REMARK   67  A    between atoms: _163  and  _164
REMARK   68  A    between atoms: _167  and  _169
REMARK   69  A    between atoms: _169  and  _170
REMARK   70  A    between atoms: _169  and  _172
REMARK   71  A    between atoms: _172  and  _173
REMARK   72  A    between atoms: _173  and  _174
REMARK   73  A    between atoms: _174  and  _175
REMARK   74  A    between atoms: _175  and  _176
REMARK   75  A    between atoms: _180  and  _182
REMARK   76  A    between atoms: _182  and  _183
REMARK   77  A    between atoms: _182  and  _185
REMARK   78  A    between atoms: _185  and  _186
REMARK   79  A    between atoms: _186  and  _187
REMARK   80  A    between atoms: _187  and  _188
REMARK   81  A    between atoms: _188  and  _189
REMARK   82  A    between atoms: _193  and  _195
REMARK   83  A    between atoms: _195  and  _196
REMARK   84  A    between atoms: _195  and  _198
REMARK   85  A    between atoms: _198  and  _199
REMARK   86  A    between atoms: _199  and  _200
REMARK   87  A    between atoms: _200  and  _201
REMARK   88  A    between atoms: _210  and  _212
REMARK   89  A    between atoms: _212  and  _213
REMARK   90  A    between atoms: _212  and  _215
REMARK   91  A    between atoms: _215  and  _216
REMARK   92  A    between atoms: _216  and  _217
REMARK   93  A    between atoms: _220  and  _222
REMARK   94  A    between atoms: _222  and  _223
REMARK   95  A    between atoms: _222  and  _225
REMARK   96  A    between atoms: _228  and  _230
REMARK   97  A    between atoms: _230  and  _231
REMARK   98  A    between atoms: _234  and  _236
REMARK   99  A    between atoms: _236  and  _237
REMARK  100  A    between atoms: _236  and  _239
REMARK  101  A    between atoms: _239  and  _240
REMARK  102  A    between atoms: _250  and  _252
REMARK  103  A    between atoms: _252  and  _253
REMARK  104  A    between atoms: _252  and  _255
REMARK  105  A    between atoms: _258  and  _260
REMARK  106  A    between atoms: _260  and  _261
REMARK  107  A    between atoms: _260  and  _263
REMARK  108  A    between atoms: _263  and  _264
REMARK  109  A    between atoms: _267  and  _269
REMARK  110  A    between atoms: _269  and  _270
REMARK  111  A    between atoms: _269  and  _272
REMARK  112  A    between atoms: _272  and  _273
REMARK  113  A    between atoms: _279  and  _281
REMARK  114  A    between atoms: _281  and  _282
REMARK  115  A    between atoms: _281  and  _284
REMARK  116  A    between atoms: _284  and  _285
REMARK  117  A    between atoms: _285  and  _286
REMARK  118  A    between atoms: _291  and  _293
REMARK  119  A    between atoms: _293  and  _294
REMARK  120  A    between atoms: _293  and  _296
REMARK  121  A    between atoms: _299  and  _301
REMARK  122  A    between atoms: _301  and  _302
REMARK  123  A    between atoms: _301  and  _304
REMARK  124  A    between atoms: _304  and  _305
REMARK  125  A    between atoms: _308  and  _310
REMARK  126  A    between atoms: _310  and  _311
REMARK  127  A    between atoms: _310  and  _313
REMARK  128  A    between atoms: _313  and  _314
REMARK  129  A    between atoms: _317  and  _319
REMARK  130  A    between atoms: _319  and  _320
REMARK  131  A    between atoms: _319  and  _322
REMARK  132  A    between atoms: _322  and  _323
REMARK  133  A    between atoms: _326  and  _328
REMARK  134  A    between atoms: _328  and  _329
REMARK  135  A    between atoms: _328  and  _331
REMARK  136  A    between atoms: _331  and  _332
REMARK  137  A    between atoms: _335  and  _337
REMARK  138  A    between atoms: _337  and  _338
REMARK  139  A    between atoms: _337  and  _340
REMARK  140  A    between atoms: _340  and  _341
REMARK  141  A    between atoms: _341  and  _342
REMARK  142  A    between atoms: _342  and  _343
REMARK  143  A    between atoms: _352  and  _354
REMARK  144  A    between atoms: _354  and  _355
REMARK  145  A    between atoms: _354  and  _357
REMARK  146  A    between atoms: _357  and  _358
REMARK  147  A    between atoms: _361  and  _363
REMARK  148  A    between atoms: _363  and  _364
REMARK  149  A    between atoms: _363  and  _366
REMARK  150  A    between atoms: _366  and  _367
REMARK  151  A    between atoms: _371  and  _372
REMARK  152  A    between atoms: _377  and  _379
REMARK  153  A    between atoms: _379  and  _380
REMARK  154  A    between atoms: _379  and  _382
REMARK  155  A    between atoms: _382  and  _383
REMARK  156  A    between atoms: _388  and  _389
REMARK  157  A    between atoms: _391  and  _393
REMARK  158  A    between atoms: _393  and  _394
REMARK  159  A    between atoms: _393  and  _396
REMARK  160  A    between atoms: _396  and  _397
REMARK  161  A    between atoms: _407  and  _409
REMARK  162  A    between atoms: _409  and  _410
REMARK  163  A    between atoms: _409  and  _412
REMARK  164  A    between atoms: _412  and  _413
REMARK  165  A    between atoms: _419  and  _421
REMARK  166  A    between atoms: _421  and  _422
REMARK  167  A    between atoms: _421  and  _424
REMARK  168  A    between atoms: _424  and  _425
REMARK  169  A    between atoms: _428  and  _430
REMARK  170  A    between atoms: _430  and  _431
REMARK  171  A    between atoms: _430  and  _433
REMARK  172  A    between atoms: _433  and  _434
REMARK  173  A    between atoms: _444  and  _446
REMARK  174  A    between atoms: _446  and  _447
REMARK  175  A    between atoms: _446  and  _449
REMARK  176  A    between atoms: _449  and  _450
REMARK  177  A    between atoms: _450  and  _451
REMARK  178  A    between atoms: _453  and  _455
REMARK  179  A    between atoms: _455  and  _456
REMARK  180  A    between atoms: _455  and  _458
REMARK  181  A    between atoms: _458  and  _459
REMARK  182  A    between atoms: _464  and  _466
REMARK  183  A    between atoms: _466  and  _467
REMARK  184  A    between atoms: _470  and  _471
REMARK  185  A    between atoms: _476  and  _478
REMARK  186  A    between atoms: _478  and  _479
REMARK  187  A    between atoms: _478  and  _481
REMARK  188  A    between atoms: _481  and  _482
REMARK  189  A    between atoms: _492  and  _494
REMARK  190  A    between atoms: _494  and  _495
REMARK  191  A    between atoms: _499  and  _500
REMARK  192  A    between atoms: _505  and  _507
REMARK  193  A    between atoms: _507  and  _508
REMARK  194  A    between atoms: _507  and  _510
REMARK  195  A    between atoms: _510  and  _511
REMARK  196  A    between atoms: _511  and  _512
REMARK  197  A    between atoms: _517  and  _519
REMARK  198  A    between atoms: _519  and  _520
REMARK  199  A    between atoms: _522  and  _524
REMARK  200  A    between atoms: _524  and  _525
REMARK  201  A    between atoms: _527  and  _529
REMARK  202  A    between atoms: _529  and  _530
REMARK  203  A    between atoms: _529  and  _532
REMARK  204  A    between atoms: _532  and  _533
REMARK  205  A    between atoms: _543  and  _545
REMARK  206  A    between atoms: _545  and  _546
REMARK  207  A    between atoms: _545  and  _548
REMARK  208  A    between atoms: _548  and  _549
REMARK  209  A    between atoms: _552  and  _554
REMARK  210  A    between atoms: _554  and  _555
REMARK  211  A    between atoms: _554  and  _557
REMARK  212  A    between atoms: _557  and  _558
REMARK  213  A    between atoms: _561  and  _563
REMARK  214  A    between atoms: _563  and  _564
REMARK  215  A    between atoms: _563  and  _566
REMARK  216  A    between atoms: _566  and  _567
REMARK  217  A    between atoms: _567  and  _568
REMARK  218  A    between atoms: _568  and  _569
REMARK  219  A    between atoms: _578  and  _580
REMARK  220  A    between atoms: _580  and  _581
REMARK  221  A    between atoms: _580  and  _583
REMARK  222  A    between atoms: _583  and  _584
REMARK  223  A    between atoms: _594  and  _596
REMARK  224  A    between atoms: _596  and  _597
REMARK  225  A    between atoms: _599  and  _601
REMARK  226  A    between atoms: _601  and  _602
REMARK  227  A    between atoms: _601  and  _604
REMARK  228  A    between atoms: _604  and  _605
REMARK  229  A    between atoms: _610  and  _612
REMARK  230  A    between atoms: _612  and  _613
REMARK  231  A    between atoms: _616  and  _618
REMARK  232  A    between atoms: _618  and  _619
REMARK  233  A    between atoms: _618  and  _621
REMARK  234  A    between atoms: _621  and  _622
REMARK  235  A    between atoms: _625  and  _627
REMARK  236  A    between atoms: _627  and  _628
REMARK  237  A    between atoms: _627  and  _630
REMARK  238  A    between atoms: _630  and  _631
REMARK  239  A    between atoms: _637  and  _639
REMARK  240  A    between atoms: _639  and  _640
REMARK  241  A    between atoms: _639  and  _642
REMARK  242  A    between atoms: _642  and  _643
REMARK  243  A    between atoms: _643  and  _644
REMARK  244  A    between atoms: _647  and  _649
REMARK  245  A    between atoms: _649  and  _650
REMARK  246  A    between atoms: _649  and  _652
REMARK  247  A    between atoms: _652  and  _653
REMARK  248  A    between atoms: _653  and  _654
REMARK  249  A    between atoms: _654  and  _655
REMARK                            x       y       z     vdW  Elec       q    Type
REMARK                         _______ _______ _______ _____ _____    ______ ____
ROOT
ATOM      1  O   HOH     1      -1.470 -12.061  27.249  0.00  0.00    +0.000 OA
ENDROOT
TORSDOF 0
REMARK  Name = ../refined-set-2016/3jzj/3jzj_pocket.pdb
REMARK  249 active torsions:
REMARK  status: ('A' for Active; 'I' for Inactive)
REMARK    1  A    between atoms: _1  and  _3
REMARK    2  A    between atoms: _3  and  _4
REMARK    3  A    between atoms: _3  and  _6
REMARK    4  A    between atoms: _6  and  _7
REMARK    5  A    between atoms: _10  and  _12
REMARK    6  A    between atoms: _12  and  _13
REMARK    7  A    between atoms: _12  and  _15
REMARK    8  A    between atoms: _15  and  _16
REMARK    9  A    between atoms: _19  and  _21
REMARK   10  A    between atoms: _21  and  _22
REMARK   11  A    between atoms: _21  and  _24
REMARK   12  A    between atoms: _24  and  _25
REMARK   13  A    between atoms: _27  and  _29
REMARK   14  A    between atoms: _29  and  _30
REMARK   15  A    between atoms: _29  and  _32
REMARK   16  A    between atoms: _32  and  _33
REMARK   17  A    between atoms: _38  and  _40
REMARK   18  A    between atoms: _40  and  _41
REMARK   19  A    between atoms: _40  and  _43
REMARK   20  A    between atoms: _43  and  _44
REMARK   21  A    between atoms: _44  and  _45
REMARK   22  A    between atoms: _48  and  _50
REMARK   23  A    between atoms: _50  and  _51
REMARK   24  A    between atoms: _54  and  _56
REMARK   25  A    between atoms: _56  and  _57
REMARK   26  A    between atoms: _56  and  _59
REMARK   27  A    between atoms: _59  and  _60
REMARK   28  A    between atoms: _60  and  _61
REMARK   29  A    between atoms: _64  and  _66
REMARK   30  A    between atoms: _66  and  _67
REMARK   31  A    between atoms: _66  and  _69
REMARK   32  A    between atoms: _69  and  _70
REMARK   33  A    between atoms: _70  and  _71
REMARK   34  A    between atoms: _71  and  _72
REMARK   35  A    between atoms: _72  and  _73
REMARK   36  A    between atoms: _77  and  _79
REMARK   37  A    between atoms: _79  and  _80
REMARK   38  A    between atoms: _79  and  _82
REMARK   39  A    between atoms: _82  and  _83
REMARK   40  A    between atoms: _88  and  _89
REMARK   41  A    between atoms: _91  and  _93
REMARK   42  A    between atoms: _93  and  _94
REMARK   43  A    between atoms: _93  and  _96
REMARK   44  A    between atoms: _96  and  _97
REMARK   45  A    between atoms: _102  and  _104
REMARK   46  A    between atoms: _104  and  _105
REMARK   47  A    between atoms: _104  and  _107
REMARK   48  A    between atoms: _111  and  _112
REMARK   49  A    between atoms: _117  and  _119
REMARK   50  A    between atoms: _119  and  _120
REMARK   51  A    between atoms: _119  and  _122
REMARK   52  A    between atoms: _122  and  _123
REMARK   53  A    between atoms: _129  and  _131
REMARK   54  A    between atoms: _131  and  _132
REMARK   55  A    between atoms: _134  and  _136
REMARK   56  A    between atoms: _136  and  _137
REMARK   57  A    between atoms: _136  and  _139
REMARK   58  A    between atoms: _139  and  _140
REMARK   59  A    between atoms: _140  and  _141
REMARK   60  A    between atoms: _144  and  _146
REMARK   61  A    between atoms: _146  and  _147
REMARK   62  A    between atoms: _150  and  _152
REMARK   63  A    between atoms: _152  and  _153
REMARK   64  A    between atoms: _152  and  _155
REMARK   65  A    between atoms: _155  and  _156
REMARK   66  A    between atoms: _161  and  _163
REMARK   67  A    between atoms: _163  and  _164
REMARK   68  A    between atoms: _167  and  _169
REMARK   69  A    between atoms: _169  and  _170
REMARK   70  A    between atoms: _169  and  _172
REMARK   71  A    between atoms: _172  and  _173
REMARK   72  A    between atoms: _173  and  _174
REMARK   73  A    between atoms: _174  and  _175
REMARK   74  A    between atoms: _175  and  _176
REMARK   75  A    between atoms: _180  and  _182
REMARK   76  A    between atoms: _182  and  _183
REMARK   77  A    between atoms: _182  and  _185
REMARK   78  A    between atoms: _185  and  _186
REMARK   79  A    between atoms: _186  and  _187
REMARK   80  A    between atoms: _187  and  _188
REMARK   81  A    between atoms: _188  and  _189
REMARK   82  A    between atoms: _193  and  _195
REMARK   83  A    between atoms: _195  and  _196
REMARK   84  A    between atoms: _195  and  _198
REMARK   85  A    between atoms: _198  and  _199
REMARK   86  A    between atoms: _199  and  _200
REMARK   87  A    between atoms: _200  and  _201
REMARK   88  A    between atoms: _210  and  _212
REMARK   89  A    between atoms: _212  and  _213
REMARK   90  A    between atoms: _212  and  _215
REMARK   91  A    between atoms: _215  and  _216
REMARK   92  A    between atoms: _216  and  _217
REMARK   93  A    between atoms: _220  and  _222
REMARK   94  A    between atoms: _222  and  _223
REMARK   95  A    between atoms: _222  and  _225
REMARK   96  A    between atoms: _228  and  _230
REMARK   97  A    between atoms: _230  and  _231
REMARK   98  A    between atoms: _234  and  _236
REMARK   99  A    between atoms: _236  and  _237
REMARK  100  A    between atoms: _236  and  _239
REMARK  101  A    between atoms: _239  and  _240
REMARK  102  A    between atoms: _250  and  _252
REMARK  103  A    between atoms: _252  and  _253
REMARK  104  A    between atoms: _252  and  _255
REMARK  105  A    between atoms: _258  and  _260
REMARK  106  A    between atoms: _260  and  _261
REMARK  107  A    between atoms: _260  and  _263
REMARK  108  A    between atoms: _263  and  _264
REMARK  109  A    between atoms: _267  and  _269
REMARK  110  A    between atoms: _269  and  _270
REMARK  111  A    between atoms: _269  and  _272
REMARK  112  A    between atoms: _272  and  _273
REMARK  113  A    between atoms: _279  and  _281
REMARK  114  A    between atoms: _281  and  _282
REMARK  115  A    between atoms: _281  and  _284
REMARK  116  A    between atoms: _284  and  _285
REMARK  117  A    between atoms: _285  and  _286
REMARK  118  A    between atoms: _291  and  _293
REMARK  119  A    between atoms: _293  and  _294
REMARK  120  A    between atoms: _293  and  _296
REMARK  121  A    between atoms: _299  and  _301
REMARK  122  A    between atoms: _301  and  _302
REMARK  123  A    between atoms: _301  and  _304
REMARK  124  A    between atoms: _304  and  _305
REMARK  125  A    between atoms: _308  and  _310
REMARK  126  A    between atoms: _310  and  _311
REMARK  127  A    between atoms: _310  and  _313
REMARK  128  A    between atoms: _313  and  _314
REMARK  129  A    between atoms: _317  and  _319
REMARK  130  A    between atoms: _319  and  _320
REMARK  131  A    between atoms: _319  and  _322
REMARK  132  A    between atoms: _322  and  _323
REMARK  133  A    between atoms: _326  and  _328
REMARK  134  A    between atoms: _328  and  _329
REMARK  135  A    between atoms: _328  and  _331
REMARK  136  A    between atoms: _331  and  _332
REMARK  137  A    between atoms: _335  and  _337
REMARK  138  A    between atoms: _337  and  _338
REMARK  139  A    between atoms: _337  and  _340
REMARK  140  A    between atoms: _340  and  _341
REMARK  141  A    between atoms: _341  and  _342
REMARK  142  A    between atoms: _342  and  _343
REMARK  143  A    between atoms: _352  and  _354
REMARK  144  A    between atoms: _354  and  _355
REMARK  145  A    between atoms: _354  and  _357
REMARK  146  A    between atoms: _357  and  _358
REMARK  147  A    between atoms: _361  and  _363
REMARK  148  A    between atoms: _363  and  _364
REMARK  149  A    between atoms: _363  and  _366
REMARK  150  A    between atoms: _366  and  _367
REMARK  151  A    between atoms: _371  and  _372
REMARK  152  A    between atoms: _377  and  _379
REMARK  153  A    between atoms: _379  and  _380
REMARK  154  A    between atoms: _379  and  _382
REMARK  155  A    between atoms: _382  and  _383
REMARK  156  A    between atoms: _388  and  _389
REMARK  157  A    between atoms: _391  and  _393
REMARK  158  A    between atoms: _393  and  _394
REMARK  159  A    between atoms: _393  and  _396
REMARK  160  A    between atoms: _396  and  _397
REMARK  161  A    between atoms: _407  and  _409
REMARK  162  A    between atoms: _409  and  _410
REMARK  163  A    between atoms: _409  and  _412
REMARK  164  A    between atoms: _412  and  _413
REMARK  165  A    between atoms: _419  and  _421
REMARK  166  A    between atoms: _421  and  _422
REMARK  167  A    between atoms: _421  and  _424
REMARK  168  A    between atoms: _424  and  _425
REMARK  169  A    between atoms: _428  and  _430
REMARK  170  A    between atoms: _430  and  _431
REMARK  171  A    between atoms: _430  and  _433
REMARK  172  A    between atoms: _433  and  _434
REMARK  173  A    between atoms: _444  and  _446
REMARK  174  A    between atoms: _446  and  _447
REMARK  175  A    between atoms: _446  and  _449
REMARK  176  A    between atoms: _449  and  _450
REMARK  177  A    between atoms: _450  and  _451
REMARK  178  A    between atoms: _453  and  _455
REMARK  179  A    between atoms: _455  and  _456
REMARK  180  A    between atoms: _455  and  _458
REMARK  181  A    between atoms: _458  and  _459
REMARK  182  A    between atoms: _464  and  _466
REMARK  183  A    between atoms: _466  and  _467
REMARK  184  A    between atoms: _470  and  _471
REMARK  185  A    between atoms: _476  and  _478
REMARK  186  A    between atoms: _478  and  _479
REMARK  187  A    between atoms: _478  and  _481
REMARK  188  A    between atoms: _481  and  _482
REMARK  189  A    between atoms: _492  and  _494
REMARK  190  A    between atoms: _494  and  _495
REMARK  191  A    between atoms: _499  and  _500
REMARK  192  A    between atoms: _505  and  _507
REMARK  193  A    between atoms: _507  and  _508
REMARK  194  A    between atoms: _507  and  _510
REMARK  195  A    between atoms: _510  and  _511
REMARK  196  A    between atoms: _511  and  _512
REMARK  197  A    between atoms: _517  and  _519
REMARK  198  A    between atoms: _519  and  _520
REMARK  199  A    between atoms: _522  and  _524
REMARK  200  A    between atoms: _524  and  _525
REMARK  201  A    between atoms: _527  and  _529
REMARK  202  A    between atoms: _529  and  _530
REMARK  203  A    between atoms: _529  and  _532
REMARK  204  A    between atoms: _532  and  _533
REMARK  205  A    between atoms: _543  and  _545
REMARK  206  A    between atoms: _545  and  _546
REMARK  207  A    between atoms: _545  and  _548
REMARK  208  A    between atoms: _548  and  _549
REMARK  209  A    between atoms: _552  and  _554
REMARK  210  A    between atoms: _554  and  _555
REMARK  211  A    between atoms: _554  and  _557
REMARK  212  A    between atoms: _557  and  _558
REMARK  213  A    between atoms: _561  and  _563
REMARK  214  A    between atoms: _563  and  _564
REMARK  215  A    between atoms: _563  and  _566
REMARK  216  A    between atoms: _566  and  _567
REMARK  217  A    between atoms: _567  and  _568
REMARK  218  A    between atoms: _568  and  _569
REMARK  219  A    between atoms: _578  and  _580
REMARK  220  A    between atoms: _580  and  _581
REMARK  221  A    between atoms: _580  and  _583
REMARK  222  A    between atoms: _583  and  _584
REMARK  223  A    between atoms: _594  and  _596
REMARK  224  A    between atoms: _596  and  _597
REMARK  225  A    between atoms: _599  and  _601
REMARK  226  A    between atoms: _601  and  _602
REMARK  227  A    between atoms: _601  and  _604
REMARK  228  A    between atoms: _604  and  _605
REMARK  229  A    between atoms: _610  and  _612
REMARK  230  A    between atoms: _612  and  _613
REMARK  231  A    between atoms: _616  and  _618
REMARK  232  A    between atoms: _618  and  _619
REMARK  233  A    between atoms: _618  and  _621
REMARK  234  A    between atoms: _621  and  _622
REMARK  235  A    between atoms: _625  and  _627
REMARK  236  A    between atoms: _627  and  _628
REMARK  237  A    between atoms: _627  and  _630
REMARK  238  A    between atoms: _630  and  _631
REMARK  239  A    between atoms: _637  and  _639
REMARK  240  A    between atoms: _639  and  _640
REMARK  241  A    between atoms: _639  and  _642
REMARK  242  A    between atoms: _642  and  _643
REMARK  243  A    between atoms: _643  and  _644
REMARK  244  A    between atoms: _647  and  _649
REMARK  245  A    between atoms: _649  and  _650
REMARK  246  A    between atoms: _649  and  _652
REMARK  247  A    between atoms: _652  and  _653
REMARK  248  A    between atoms: _653  and  _654
REMARK  249  A    between atoms: _654  and  _655
REMARK                            x       y       z     vdW  Elec       q    Type
REMARK                         _______ _______ _______ _____ _____    ______ ____
ROOT
ATOM      1  O   HOH     1      -0.327   0.401  17.067  0.00  0.00    +0.000 OA
ENDROOT
TORSDOF 0
REMARK  Name = ../refined-set-2016/3jzj/3jzj_pocket.pdb
REMARK  249 active torsions:
REMARK  status: ('A' for Active; 'I' for Inactive)
REMARK    1  A    between atoms: _1  and  _3
REMARK    2  A    between atoms: _3  and  _4
REMARK    3  A    between atoms: _3  and  _6
REMARK    4  A    between atoms: _6  and  _7
REMARK    5  A    between atoms: _10  and  _12
REMARK    6  A    between atoms: _12  and  _13
REMARK    7  A    between atoms: _12  and  _15
REMARK    8  A    between atoms: _15  and  _16
REMARK    9  A    between atoms: _19  and  _21
REMARK   10  A    between atoms: _21  and  _22
REMARK   11  A    between atoms: _21  and  _24
REMARK   12  A    between atoms: _24  and  _25
REMARK   13  A    between atoms: _27  and  _29
REMARK   14  A    between atoms: _29  and  _30
REMARK   15  A    between atoms: _29  and  _32
REMARK   16  A    between atoms: _32  and  _33
REMARK   17  A    between atoms: _38  and  _40
REMARK   18  A    between atoms: _40  and  _41
REMARK   19  A    between atoms: _40  and  _43
REMARK   20  A    between atoms: _43  and  _44
REMARK   21  A    between atoms: _44  and  _45
REMARK   22  A    between atoms: _48  and  _50
REMARK   23  A    between atoms: _50  and  _51
REMARK   24  A    between atoms: _54  and  _56
REMARK   25  A    between atoms: _56  and  _57
REMARK   26  A    between atoms: _56  and  _59
REMARK   27  A    between atoms: _59  and  _60
REMARK   28  A    between atoms: _60  and  _61
REMARK   29  A    between atoms: _64  and  _66
REMARK   30  A    between atoms: _66  and  _67
REMARK   31  A    between atoms: _66  and  _69
REMARK   32  A    between atoms: _69  and  _70
REMARK   33  A    between atoms: _70  and  _71
REMARK   34  A    between atoms: _71  and  _72
REMARK   35  A    between atoms: _72  and  _73
REMARK   36  A    between atoms: _77  and  _79
REMARK   37  A    between atoms: _79  and  _80
REMARK   38  A    between atoms: _79  and  _82
REMARK   39  A    between atoms: _82  and  _83
REMARK   40  A    between atoms: _88  and  _89
REMARK   41  A    between atoms: _91  and  _93
REMARK   42  A    between atoms: _93  and  _94
REMARK   43  A    between atoms: _93  and  _96
REMARK   44  A    between atoms: _96  and  _97
REMARK   45  A    between atoms: _102  and  _104
REMARK   46  A    between atoms: _104  and  _105
REMARK   47  A    between atoms: _104  and  _107
REMARK   48  A    between atoms: _111  and  _112
REMARK   49  A    between atoms: _117  and  _119
REMARK   50  A    between atoms: _119  and  _120
REMARK   51  A    between atoms: _119  and  _122
REMARK   52  A    between atoms: _122  and  _123
REMARK   53  A    between atoms: _129  and  _131
REMARK   54  A    between atoms: _131  and  _132
REMARK   55  A    between atoms: _134  and  _136
REMARK   56  A    between atoms: _136  and  _137
REMARK   57  A    between atoms: _136  and  _139
REMARK   58  A    between atoms: _139  and  _140
REMARK   59  A    between atoms: _140  and  _141
REMARK   60  A    between atoms: _144  and  _146
REMARK   61  A    between atoms: _146  and  _147
REMARK   62  A    between atoms: _150  and  _152
REMARK   63  A    between atoms: _152  and  _153
REMARK   64  A    between atoms: _152  and  _155
REMARK   65  A    between atoms: _155  and  _156
REMARK   66  A    between atoms: _161  and  _163
REMARK   67  A    between atoms: _163  and  _164
REMARK   68  A    between atoms: _167  and  _169
REMARK   69  A    between atoms: _169  and  _170
REMARK   70  A    between atoms: _169  and  _172
REMARK   71  A    between atoms: _172  and  _173
REMARK   72  A    between atoms: _173  and  _174
REMARK   73  A    between atoms: _174  and  _175
REMARK   74  A    between atoms: _175  and  _176
REMARK   75  A    between atoms: _180  and  _182
REMARK   76  A    between atoms: _182  and  _183
REMARK   77  A    between atoms: _182  and  _185
REMARK   78  A    between atoms: _185  and  _186
REMARK   79  A    between atoms: _186  and  _187
REMARK   80  A    between atoms: _187  and  _188
REMARK   81  A    between atoms: _188  and  _189
REMARK   82  A    between atoms: _193  and  _195
REMARK   83  A    between atoms: _195  and  _196
REMARK   84  A    between atoms: _195  and  _198
REMARK   85  A    between atoms: _198  and  _199
REMARK   86  A    between atoms: _199  and  _200
REMARK   87  A    between atoms: _200  and  _201
REMARK   88  A    between atoms: _210  and  _212
REMARK   89  A    between atoms: _212  and  _213
REMARK   90  A    between atoms: _212  and  _215
REMARK   91  A    between atoms: _215  and  _216
REMARK   92  A    between atoms: _216  and  _217
REMARK   93  A    between atoms: _220  and  _222
REMARK   94  A    between atoms: _222  and  _223
REMARK   95  A    between atoms: _222  and  _225
REMARK   96  A    between atoms: _228  and  _230
REMARK   97  A    between atoms: _230  and  _231
REMARK   98  A    between atoms: _234  and  _236
REMARK   99  A    between atoms: _236  and  _237
REMARK  100  A    between atoms: _236  and  _239
REMARK  101  A    between atoms: _239  and  _240
REMARK  102  A    between atoms: _250  and  _252
REMARK  103  A    between atoms: _252  and  _253
REMARK  104  A    between atoms: _252  and  _255
REMARK  105  A    between atoms: _258  and  _260
REMARK  106  A    between atoms: _260  and  _261
REMARK  107  A    between atoms: _260  and  _263
REMARK  108  A    between atoms: _263  and  _264
REMARK  109  A    between atoms: _267  and  _269
REMARK  110  A    between atoms: _269  and  _270
REMARK  111  A    between atoms: _269  and  _272
REMARK  112  A    between atoms: _272  and  _273
REMARK  113  A    between atoms: _279  and  _281
REMARK  114  A    between atoms: _281  and  _282
REMARK  115  A    between atoms: _281  and  _284
REMARK  116  A    between atoms: _284  and  _285
REMARK  117  A    between atoms: _285  and  _286
REMARK  118  A    between atoms: _291  and  _293
REMARK  119  A    between atoms: _293  and  _294
REMARK  120  A    between atoms: _293  and  _296
REMARK  121  A    between atoms: _299  and  _301
REMARK  122  A    between atoms: _301  and  _302
REMARK  123  A    between atoms: _301  and  _304
REMARK  124  A    between atoms: _304  and  _305
REMARK  125  A    between atoms: _308  and  _310
REMARK  126  A    between atoms: _310  and  _311
REMARK  127  A    between atoms: _310  and  _313
REMARK  128  A    between atoms: _313  and  _314
REMARK  129  A    between atoms: _317  and  _319
REMARK  130  A    between atoms: _319  and  _320
REMARK  131  A    between atoms: _319  and  _322
REMARK  132  A    between atoms: _322  and  _323
REMARK  133  A    between atoms: _326  and  _328
REMARK  134  A    between atoms: _328  and  _329
REMARK  135  A    between atoms: _328  and  _331
REMARK  136  A    between atoms: _331  and  _332
REMARK  137  A    between atoms: _335  and  _337
REMARK  138  A    between atoms: _337  and  _338
REMARK  139  A    between atoms: _337  and  _340
REMARK  140  A    between atoms: _340  and  _341
REMARK  141  A    between atoms: _341  and  _342
REMARK  142  A    between atoms: _342  and  _343
REMARK  143  A    between atoms: _352  and  _354
REMARK  144  A    between atoms: _354  and  _355
REMARK  145  A    between atoms: _354  and  _357
REMARK  146  A    between atoms: _357  and  _358
REMARK  147  A    between atoms: _361  and  _363
REMARK  148  A    between atoms: _363  and  _364
REMARK  149  A    between atoms: _363  and  _366
REMARK  150  A    between atoms: _366  and  _367
REMARK  151  A    between atoms: _371  and  _372
REMARK  152  A    between atoms: _377  and  _379
REMARK  153  A    between atoms: _379  and  _380
REMARK  154  A    between atoms: _379  and  _382
REMARK  155  A    between atoms: _382  and  _383
REMARK  156  A    between atoms: _388  and  _389
REMARK  157  A    between atoms: _391  and  _393
REMARK  158  A    between atoms: _393  and  _394
REMARK  159  A    between atoms: _393  and  _396
REMARK  160  A    between atoms: _396  and  _397
REMARK  161  A    between atoms: _407  and  _409
REMARK  162  A    between atoms: _409  and  _410
REMARK  163  A    between atoms: _409  and  _412
REMARK  164  A    between atoms: _412  and  _413
REMARK  165  A    between atoms: _419  and  _421
REMARK  166  A    between atoms: _421  and  _422
REMARK  167  A    between atoms: _421  and  _424
REMARK  168  A    between atoms: _424  and  _425
REMARK  169  A    between atoms: _428  and  _430
REMARK  170  A    between atoms: _430  and  _431
REMARK  171  A    between atoms: _430  and  _433
REMARK  172  A    between atoms: _433  and  _434
REMARK  173  A    between atoms: _444  and  _446
REMARK  174  A    between atoms: _446  and  _447
REMARK  175  A    between atoms: _446  and  _449
REMARK  176  A    between atoms: _449  and  _450
REMARK  177  A    between atoms: _450  and  _451
REMARK  178  A    between atoms: _453  and  _455
REMARK  179  A    between atoms: _455  and  _456
REMARK  180  A    between atoms: _455  and  _458
REMARK  181  A    between atoms: _458  and  _459
REMARK  182  A    between atoms: _464  and  _466
REMARK  183  A    between atoms: _466  and  _467
REMARK  184  A    between atoms: _470  and  _471
REMARK  185  A    between atoms: _476  and  _478
REMARK  186  A    between atoms: _478  and  _479
REMARK  187  A    between atoms: _478  and  _481
REMARK  188  A    between atoms: _481  and  _482
REMARK  189  A    between atoms: _492  and  _494
REMARK  190  A    between atoms: _494  and  _495
REMARK  191  A    between atoms: _499  and  _500
REMARK  192  A    between atoms: _505  and  _507
REMARK  193  A    between atoms: _507  and  _508
REMARK  194  A    between atoms: _507  and  _510
REMARK  195  A    between atoms: _510  and  _511
REMARK  196  A    between atoms: _511  and  _512
REMARK  197  A    between atoms: _517  and  _519
REMARK  198  A    between atoms: _519  and  _520
REMARK  199  A    between atoms: _522  and  _524
REMARK  200  A    between atoms: _524  and  _525
REMARK  201  A    between atoms: _527  and  _529
REMARK  202  A    between atoms: _529  and  _530
REMARK  203  A    between atoms: _529  and  _532
REMARK  204  A    between atoms: _532  and  _533
REMARK  205  A    between atoms: _543  and  _545
REMARK  206  A    between atoms: _545  and  _546
REMARK  207  A    between atoms: _545  and  _548
REMARK  208  A    between atoms: _548  and  _549
REMARK  209  A    between atoms: _552  and  _554
REMARK  210  A    between atoms: _554  and  _555
REMARK  211  A    between atoms: _554  and  _557
REMARK  212  A    between atoms: _557  and  _558
REMARK  213  A    between atoms: _561  and  _563
REMARK  214  A    between atoms: _563  and  _564
REMARK  215  A    between atoms: _563  and  _566
REMARK  216  A    between atoms: _566  and  _567
REMARK  217  A    between atoms: _567  and  _568
REMARK  218  A    between atoms: _568  and  _569
REMARK  219  A    between atoms: _578  and  _580
REMARK  220  A    between atoms: _580  and  _581
REMARK  221  A    between atoms: _580  and  _583
REMARK  222  A    between atoms: _583  and  _584
REMARK  223  A    between atoms: _594  and  _596
REMARK  224  A    between atoms: _596  and  _597
REMARK  225  A    between atoms: _599  and  _601
REMARK  226  A    between atoms: _601  and  _602
REMARK  227  A    between atoms: _601  and  _604
REMARK  228  A    between atoms: _604  and  _605
REMARK  229  A    between atoms: _610  and  _612
REMARK  230  A    between atoms: _612  and  _613
REMARK  231  A    between atoms: _616  and  _618
REMARK  232  A    between atoms: _618  and  _619
REMARK  233  A    between atoms: _618  and  _621
REMARK  234  A    between atoms: _621  and  _622
REMARK  235  A    between atoms: _625  and  _627
REMARK  236  A    between atoms: _627  and  _628
REMARK  237  A    between atoms: _627  and  _630
REMARK  238  A    between atoms: _630  and  _631
REMARK  239  A    between atoms: _637  and  _639
REMARK  240  A    between atoms: _639  and  _640
REMARK  241  A    between atoms: _639  and  _642
REMARK  242  A    between atoms: _642  and  _643
REMARK  243  A    between atoms: _643  and  _644
REMARK  244  A    between atoms: _647  and  _649
REMARK  245  A    between atoms: _649  and  _650
REMARK  246  A    between atoms: _649  and  _652
REMARK  247  A    between atoms: _652  and  _653
REMARK  248  A    between atoms: _653  and  _654
REMARK  249  A    between atoms: _654  and  _655
REMARK                            x       y       z     vdW  Elec       q    Type
REMARK                         _______ _______ _______ _____ _____    ______ ____
ROOT
ATOM      1  O   HOH     1       3.890  -2.354  11.626  0.00  0.00    +0.000 OA
ENDROOT
TORSDOF 0
REMARK  Name = ../refined-set-2016/3jzj/3jzj_pocket.pdb
REMARK  249 active torsions:
REMARK  status: ('A' for Active; 'I' for Inactive)
REMARK    1  A    between atoms: _1  and  _3
REMARK    2  A    between atoms: _3  and  _4
REMARK    3  A    between atoms: _3  and  _6
REMARK    4  A    between atoms: _6  and  _7
REMARK    5  A    between atoms: _10  and  _12
REMARK    6  A    between atoms: _12  and  _13
REMARK    7  A    between atoms: _12  and  _15
REMARK    8  A    between atoms: _15  and  _16
REMARK    9  A    between atoms: _19  and  _21
REMARK   10  A    between atoms: _21  and  _22
REMARK   11  A    between atoms: _21  and  _24
REMARK   12  A    between atoms: _24  and  _25
REMARK   13  A    between atoms: _27  and  _29
REMARK   14  A    between atoms: _29  and  _30
REMARK   15  A    between atoms: _29  and  _32
REMARK   16  A    between atoms: _32  and  _33
REMARK   17  A    between atoms: _38  and  _40
REMARK   18  A    between atoms: _40  and  _41
REMARK   19  A    between atoms: _40  and  _43
REMARK   20  A    between atoms: _43  and  _44
REMARK   21  A    between atoms: _44  and  _45
REMARK   22  A    between atoms: _48  and  _50
REMARK   23  A    between atoms: _50  and  _51
REMARK   24  A    between atoms: _54  and  _56
REMARK   25  A    between atoms: _56  and  _57
REMARK   26  A    between atoms: _56  and  _59
REMARK   27  A    between atoms: _59  and  _60
REMARK   28  A    between atoms: _60  and  _61
REMARK   29  A    between atoms: _64  and  _66
REMARK   30  A    between atoms: _66  and  _67
REMARK   31  A    between atoms: _66  and  _69
REMARK   32  A    between atoms: _69  and  _70
REMARK   33  A    between atoms: _70  and  _71
REMARK   34  A    between atoms: _71  and  _72
REMARK   35  A    between atoms: _72  and  _73
REMARK   36  A    between atoms: _77  and  _79
REMARK   37  A    between atoms: _79  and  _80
REMARK   38  A    between atoms: _79  and  _82
REMARK   39  A    between atoms: _82  and  _83
REMARK   40  A    between atoms: _88  and  _89
REMARK   41  A    between atoms: _91  and  _93
REMARK   42  A    between atoms: _93  and  _94
REMARK   43  A    between atoms: _93  and  _96
REMARK   44  A    between atoms: _96  and  _97
REMARK   45  A    between atoms: _102  and  _104
REMARK   46  A    between atoms: _104  and  _105
REMARK   47  A    between atoms: _104  and  _107
REMARK   48  A    between atoms: _111  and  _112
REMARK   49  A    between atoms: _117  and  _119
REMARK   50  A    between atoms: _119  and  _120
REMARK   51  A    between atoms: _119  and  _122
REMARK   52  A    between atoms: _122  and  _123
REMARK   53  A    between atoms: _129  and  _131
REMARK   54  A    between atoms: _131  and  _132
REMARK   55  A    between atoms: _134  and  _136
REMARK   56  A    between atoms: _136  and  _137
REMARK   57  A    between atoms: _136  and  _139
REMARK   58  A    between atoms: _139  and  _140
REMARK   59  A    between atoms: _140  and  _141
REMARK   60  A    between atoms: _144  and  _146
REMARK   61  A    between atoms: _146  and  _147
REMARK   62  A    between atoms: _150  and  _152
REMARK   63  A    between atoms: _152  and  _153
REMARK   64  A    between atoms: _152  and  _155
REMARK   65  A    between atoms: _155  and  _156
REMARK   66  A    between atoms: _161  and  _163
REMARK   67  A    between atoms: _163  and  _164
REMARK   68  A    between atoms: _167  and  _169
REMARK   69  A    between atoms: _169  and  _170
REMARK   70  A    between atoms: _169  and  _172
REMARK   71  A    between atoms: _172  and  _173
REMARK   72  A    between atoms: _173  and  _174
REMARK   73  A    between atoms: _174  and  _175
REMARK   74  A    between atoms: _175  and  _176
REMARK   75  A    between atoms: _180  and  _182
REMARK   76  A    between atoms: _182  and  _183
REMARK   77  A    between atoms: _182  and  _185
REMARK   78  A    between atoms: _185  and  _186
REMARK   79  A    between atoms: _186  and  _187
REMARK   80  A    between atoms: _187  and  _188
REMARK   81  A    between atoms: _188  and  _189
REMARK   82  A    between atoms: _193  and  _195
REMARK   83  A    between atoms: _195  and  _196
REMARK   84  A    between atoms: _195  and  _198
REMARK   85  A    between atoms: _198  and  _199
REMARK   86  A    between atoms: _199  and  _200
REMARK   87  A    between atoms: _200  and  _201
REMARK   88  A    between atoms: _210  and  _212
REMARK   89  A    between atoms: _212  and  _213
REMARK   90  A    between atoms: _212  and  _215
REMARK   91  A    between atoms: _215  and  _216
REMARK   92  A    between atoms: _216  and  _217
REMARK   93  A    between atoms: _220  and  _222
REMARK   94  A    between atoms: _222  and  _223
REMARK   95  A    between atoms: _222  and  _225
REMARK   96  A    between atoms: _228  and  _230
REMARK   97  A    between atoms: _230  and  _231
REMARK   98  A    between atoms: _234  and  _236
REMARK   99  A    between atoms: _236  and  _237
REMARK  100  A    between atoms: _236  and  _239
REMARK  101  A    between atoms: _239  and  _240
REMARK  102  A    between atoms: _250  and  _252
REMARK  103  A    between atoms: _252  and  _253
REMARK  104  A    between atoms: _252  and  _255
REMARK  105  A    between atoms: _258  and  _260
REMARK  106  A    between atoms: _260  and  _261
REMARK  107  A    between atoms: _260  and  _263
REMARK  108  A    between atoms: _263  and  _264
REMARK  109  A    between atoms: _267  and  _269
REMARK  110  A    between atoms: _269  and  _270
REMARK  111  A    between atoms: _269  and  _272
REMARK  112  A    between atoms: _272  and  _273
REMARK  113  A    between atoms: _279  and  _281
REMARK  114  A    between atoms: _281  and  _282
REMARK  115  A    between atoms: _281  and  _284
REMARK  116  A    between atoms: _284  and  _285
REMARK  117  A    between atoms: _285  and  _286
REMARK  118  A    between atoms: _291  and  _293
REMARK  119  A    between atoms: _293  and  _294
REMARK  120  A    between atoms: _293  and  _296
REMARK  121  A    between atoms: _299  and  _301
REMARK  122  A    between atoms: _301  and  _302
REMARK  123  A    between atoms: _301  and  _304
REMARK  124  A    between atoms: _304  and  _305
REMARK  125  A    between atoms: _308  and  _310
REMARK  126  A    between atoms: _310  and  _311
REMARK  127  A    between atoms: _310  and  _313
REMARK  128  A    between atoms: _313  and  _314
REMARK  129  A    between atoms: _317  and  _319
REMARK  130  A    between atoms: _319  and  _320
REMARK  131  A    between atoms: _319  and  _322
REMARK  132  A    between atoms: _322  and  _323
REMARK  133  A    between atoms: _326  and  _328
REMARK  134  A    between atoms: _328  and  _329
REMARK  135  A    between atoms: _328  and  _331
REMARK  136  A    between atoms: _331  and  _332
REMARK  137  A    between atoms: _335  and  _337
REMARK  138  A    between atoms: _337  and  _338
REMARK  139  A    between atoms: _337  and  _340
REMARK  140  A    between atoms: _340  and  _341
REMARK  141  A    between atoms: _341  and  _342
REMARK  142  A    between atoms: _342  and  _343
REMARK  143  A    between atoms: _352  and  _354
REMARK  144  A    between atoms: _354  and  _355
REMARK  145  A    between atoms: _354  and  _357
REMARK  146  A    between atoms: _357  and  _358
REMARK  147  A    between atoms: _361  and  _363
REMARK  148  A    between atoms: _363  and  _364
REMARK  149  A    between atoms: _363  and  _366
REMARK  150  A    between atoms: _366  and  _367
REMARK  151  A    between atoms: _371  and  _372
REMARK  152  A    between atoms: _377  and  _379
REMARK  153  A    between atoms: _379  and  _380
REMARK  154  A    between atoms: _379  and  _382
REMARK  155  A    between atoms: _382  and  _383
REMARK  156  A    between atoms: _388  and  _389
REMARK  157  A    between atoms: _391  and  _393
REMARK  158  A    between atoms: _393  and  _394
REMARK  159  A    between atoms: _393  and  _396
REMARK  160  A    between atoms: _396  and  _397
REMARK  161  A    between atoms: _407  and  _409
REMARK  162  A    between atoms: _409  and  _410
REMARK  163  A    between atoms: _409  and  _412
REMARK  164  A    between atoms: _412  and  _413
REMARK  165  A    between atoms: _419  and  _421
REMARK  166  A    between atoms: _421  and  _422
REMARK  167  A    between atoms: _421  and  _424
REMARK  168  A    between atoms: _424  and  _425
REMARK  169  A    between atoms: _428  and  _430
REMARK  170  A    between atoms: _430  and  _431
REMARK  171  A    between atoms: _430  and  _433
REMARK  172  A    between atoms: _433  and  _434
REMARK  173  A    between atoms: _444  and  _446
REMARK  174  A    between atoms: _446  and  _447
REMARK  175  A    between atoms: _446  and  _449
REMARK  176  A    between atoms: _449  and  _450
REMARK  177  A    between atoms: _450  and  _451
REMARK  178  A    between atoms: _453  and  _455
REMARK  179  A    between atoms: _455  and  _456
REMARK  180  A    between atoms: _455  and  _458
REMARK  181  A    between atoms: _458  and  _459
REMARK  182  A    between atoms: _464  and  _466
REMARK  183  A    between atoms: _466  and  _467
REMARK  184  A    between atoms: _470  and  _471
REMARK  185  A    between atoms: _476  and  _478
REMARK  186  A    between atoms: _478  and  _479
REMARK  187  A    between atoms: _478  and  _481
REMARK  188  A    between atoms: _481  and  _482
REMARK  189  A    between atoms: _492  and  _494
REMARK  190  A    between atoms: _494  and  _495
REMARK  191  A    between atoms: _499  and  _500
REMARK  192  A    between atoms: _505  and  _507
REMARK  193  A    between atoms: _507  and  _508
REMARK  194  A    between atoms: _507  and  _510
REMARK  195  A    between atoms: _510  and  _511
REMARK  196  A    between atoms: _511  and  _512
REMARK  197  A    between atoms: _517  and  _519
REMARK  198  A    between atoms: _519  and  _520
REMARK  199  A    between atoms: _522  and  _524
REMARK  200  A    between atoms: _524  and  _525
REMARK  201  A    between atoms: _527  and  _529
REMARK  202  A    between atoms: _529  and  _530
REMARK  203  A    between atoms: _529  and  _532
REMARK  204  A    between atoms: _532  and  _533
REMARK  205  A    between atoms: _543  and  _545
REMARK  206  A    between atoms: _545  and  _546
REMARK  207  A    between atoms: _545  and  _548
REMARK  208  A    between atoms: _548  and  _549
REMARK  209  A    between atoms: _552  and  _554
REMARK  210  A    between atoms: _554  and  _555
REMARK  211  A    between atoms: _554  and  _557
REMARK  212  A    between atoms: _557  and  _558
REMARK  213  A    between atoms: _561  and  _563
REMARK  214  A    between atoms: _563  and  _564
REMARK  215  A    between atoms: _563  and  _566
REMARK  216  A    between atoms: _566  and  _567
REMARK  217  A    between atoms: _567  and  _568
REMARK  218  A    between atoms: _568  and  _569
REMARK  219  A    between atoms: _578  and  _580
REMARK  220  A    between atoms: _580  and  _581
REMARK  221  A    between atoms: _580  and  _583
REMARK  222  A    between atoms: _583  and  _584
REMARK  223  A    between atoms: _594  and  _596
REMARK  224  A    between atoms: _596  and  _597
REMARK  225  A    between atoms: _599  and  _601
REMARK  226  A    between atoms: _601  and  _602
REMARK  227  A    between atoms: _601  and  _604
REMARK  228  A    between atoms: _604  and  _605
REMARK  229  A    between atoms: _610  and  _612
REMARK  230  A    between atoms: _612  and  _613
REMARK  231  A    between atoms: _616  and  _618
REMARK  232  A    between atoms: _618  and  _619
REMARK  233  A    between atoms: _618  and  _621
REMARK  234  A    between atoms: _621  and  _622
REMARK  235  A    between atoms: _625  and  _627
REMARK  236  A    between atoms: _627  and  _628
REMARK  237  A    between atoms: _627  and  _630
REMARK  238  A    between atoms: _630  and  _631
REMARK  239  A    between atoms: _637  and  _639
REMARK  240  A    between atoms: _639  and  _640
REMARK  241  A    between atoms: _639  and  _642
REMARK  242  A    between atoms: _642  and  _643
REMARK  243  A    between atoms: _643  and  _644
REMARK  244  A    between atoms: _647  and  _649
REMARK  245  A    between atoms: _649  and  _650
REMARK  246  A    between atoms: _649  and  _652
REMARK  247  A    between atoms: _652  and  _653
REMARK  248  A    between atoms: _653  and  _654
REMARK  249  A    between atoms: _654  and  _655
REMARK                            x       y       z     vdW  Elec       q    Type
REMARK                         _______ _______ _______ _____ _____    ______ ____
ROOT
ATOM      1  O   HOH     1      -7.772  -0.521  15.783  0.00  0.00    +0.000 OA
ENDROOT
TORSDOF 0
REMARK  Name = ../refined-set-2016/3jzj/3jzj_pocket.pdb
REMARK  249 active torsions:
REMARK  status: ('A' for Active; 'I' for Inactive)
REMARK    1  A    between atoms: _1  and  _3
REMARK    2  A    between atoms: _3  and  _4
REMARK    3  A    between atoms: _3  and  _6
REMARK    4  A    between atoms: _6  and  _7
REMARK    5  A    between atoms: _10  and  _12
REMARK    6  A    between atoms: _12  and  _13
REMARK    7  A    between atoms: _12  and  _15
REMARK    8  A    between atoms: _15  and  _16
REMARK    9  A    between atoms: _19  and  _21
REMARK   10  A    between atoms: _21  and  _22
REMARK   11  A    between atoms: _21  and  _24
REMARK   12  A    between atoms: _24  and  _25
REMARK   13  A    between atoms: _27  and  _29
REMARK   14  A    between atoms: _29  and  _30
REMARK   15  A    between atoms: _29  and  _32
REMARK   16  A    between atoms: _32  and  _33
REMARK   17  A    between atoms: _38  and  _40
REMARK   18  A    between atoms: _40  and  _41
REMARK   19  A    between atoms: _40  and  _43
REMARK   20  A    between atoms: _43  and  _44
REMARK   21  A    between atoms: _44  and  _45
REMARK   22  A    between atoms: _48  and  _50
REMARK   23  A    between atoms: _50  and  _51
REMARK   24  A    between atoms: _54  and  _56
REMARK   25  A    between atoms: _56  and  _57
REMARK   26  A    between atoms: _56  and  _59
REMARK   27  A    between atoms: _59  and  _60
REMARK   28  A    between atoms: _60  and  _61
REMARK   29  A    between atoms: _64  and  _66
REMARK   30  A    between atoms: _66  and  _67
REMARK   31  A    between atoms: _66  and  _69
REMARK   32  A    between atoms: _69  and  _70
REMARK   33  A    between atoms: _70  and  _71
REMARK   34  A    between atoms: _71  and  _72
REMARK   35  A    between atoms: _72  and  _73
REMARK   36  A    between atoms: _77  and  _79
REMARK   37  A    between atoms: _79  and  _80
REMARK   38  A    between atoms: _79  and  _82
REMARK   39  A    between atoms: _82  and  _83
REMARK   40  A    between atoms: _88  and  _89
REMARK   41  A    between atoms: _91  and  _93
REMARK   42  A    between atoms: _93  and  _94
REMARK   43  A    between atoms: _93  and  _96
REMARK   44  A    between atoms: _96  and  _97
REMARK   45  A    between atoms: _102  and  _104
REMARK   46  A    between atoms: _104  and  _105
REMARK   47  A    between atoms: _104  and  _107
REMARK   48  A    between atoms: _111  and  _112
REMARK   49  A    between atoms: _117  and  _119
REMARK   50  A    between atoms: _119  and  _120
REMARK   51  A    between atoms: _119  and  _122
REMARK   52  A    between atoms: _122  and  _123
REMARK   53  A    between atoms: _129  and  _131
REMARK   54  A    between atoms: _131  and  _132
REMARK   55  A    between atoms: _134  and  _136
REMARK   56  A    between atoms: _136  and  _137
REMARK   57  A    between atoms: _136  and  _139
REMARK   58  A    between atoms: _139  and  _140
REMARK   59  A    between atoms: _140  and  _141
REMARK   60  A    between atoms: _144  and  _146
REMARK   61  A    between atoms: _146  and  _147
REMARK   62  A    between atoms: _150  and  _152
REMARK   63  A    between atoms: _152  and  _153
REMARK   64  A    between atoms: _152  and  _155
REMARK   65  A    between atoms: _155  and  _156
REMARK   66  A    between atoms: _161  and  _163
REMARK   67  A    between atoms: _163  and  _164
REMARK   68  A    between atoms: _167  and  _169
REMARK   69  A    between atoms: _169  and  _170
REMARK   70  A    between atoms: _169  and  _172
REMARK   71  A    between atoms: _172  and  _173
REMARK   72  A    between atoms: _173  and  _174
REMARK   73  A    between atoms: _174  and  _175
REMARK   74  A    between atoms: _175  and  _176
REMARK   75  A    between atoms: _180  and  _182
REMARK   76  A    between atoms: _182  and  _183
REMARK   77  A    between atoms: _182  and  _185
REMARK   78  A    between atoms: _185  and  _186
REMARK   79  A    between atoms: _186  and  _187
REMARK   80  A    between atoms: _187  and  _188
REMARK   81  A    between atoms: _188  and  _189
REMARK   82  A    between atoms: _193  and  _195
REMARK   83  A    between atoms: _195  and  _196
REMARK   84  A    between atoms: _195  and  _198
REMARK   85  A    between atoms: _198  and  _199
REMARK   86  A    between atoms: _199  and  _200
REMARK   87  A    between atoms: _200  and  _201
REMARK   88  A    between atoms: _210  and  _212
REMARK   89  A    between atoms: _212  and  _213
REMARK   90  A    between atoms: _212  and  _215
REMARK   91  A    between atoms: _215  and  _216
REMARK   92  A    between atoms: _216  and  _217
REMARK   93  A    between atoms: _220  and  _222
REMARK   94  A    between atoms: _222  and  _223
REMARK   95  A    between atoms: _222  and  _225
REMARK   96  A    between atoms: _228  and  _230
REMARK   97  A    between atoms: _230  and  _231
REMARK   98  A    between atoms: _234  and  _236
REMARK   99  A    between atoms: _236  and  _237
REMARK  100  A    between atoms: _236  and  _239
REMARK  101  A    between atoms: _239  and  _240
REMARK  102  A    between atoms: _250  and  _252
REMARK  103  A    between atoms: _252  and  _253
REMARK  104  A    between atoms: _252  and  _255
REMARK  105  A    between atoms: _258  and  _260
REMARK  106  A    between atoms: _260  and  _261
REMARK  107  A    between atoms: _260  and  _263
REMARK  108  A    between atoms: _263  and  _264
REMARK  109  A    between atoms: _267  and  _269
REMARK  110  A    between atoms: _269  and  _270
REMARK  111  A    between atoms: _269  and  _272
REMARK  112  A    between atoms: _272  and  _273
REMARK  113  A    between atoms: _279  and  _281
REMARK  114  A    between atoms: _281  and  _282
REMARK  115  A    between atoms: _281  and  _284
REMARK  116  A    between atoms: _284  and  _285
REMARK  117  A    between atoms: _285  and  _286
REMARK  118  A    between atoms: _291  and  _293
REMARK  119  A    between atoms: _293  and  _294
REMARK  120  A    between atoms: _293  and  _296
REMARK  121  A    between atoms: _299  and  _301
REMARK  122  A    between atoms: _301  and  _302
REMARK  123  A    between atoms: _301  and  _304
REMARK  124  A    between atoms: _304  and  _305
REMARK  125  A    between atoms: _308  and  _310
REMARK  126  A    between atoms: _310  and  _311
REMARK  127  A    between atoms: _310  and  _313
REMARK  128  A    between atoms: _313  and  _314
REMARK  129  A    between atoms: _317  and  _319
REMARK  130  A    between atoms: _319  and  _320
REMARK  131  A    between atoms: _319  and  _322
REMARK  132  A    between atoms: _322  and  _323
REMARK  133  A    between atoms: _326  and  _328
REMARK  134  A    between atoms: _328  and  _329
REMARK  135  A    between atoms: _328  and  _331
REMARK  136  A    between atoms: _331  and  _332
REMARK  137  A    between atoms: _335  and  _337
REMARK  138  A    between atoms: _337  and  _338
REMARK  139  A    between atoms: _337  and  _340
REMARK  140  A    between atoms: _340  and  _341
REMARK  141  A    between atoms: _341  and  _342
REMARK  142  A    between atoms: _342  and  _343
REMARK  143  A    between atoms: _352  and  _354
REMARK  144  A    between atoms: _354  and  _355
REMARK  145  A    between atoms: _354  and  _357
REMARK  146  A    between atoms: _357  and  _358
REMARK  147  A    between atoms: _361  and  _363
REMARK  148  A    between atoms: _363  and  _364
REMARK  149  A    between atoms: _363  and  _366
REMARK  150  A    between atoms: _366  and  _367
REMARK  151  A    between atoms: _371  and  _372
REMARK  152  A    between atoms: _377  and  _379
REMARK  153  A    between atoms: _379  and  _380
REMARK  154  A    between atoms: _379  and  _382
REMARK  155  A    between atoms: _382  and  _383
REMARK  156  A    between atoms: _388  and  _389
REMARK  157  A    between atoms: _391  and  _393
REMARK  158  A    between atoms: _393  and  _394
REMARK  159  A    between atoms: _393  and  _396
REMARK  160  A    between atoms: _396  and  _397
REMARK  161  A    between atoms: _407  and  _409
REMARK  162  A    between atoms: _409  and  _410
REMARK  163  A    between atoms: _409  and  _412
REMARK  164  A    between atoms: _412  and  _413
REMARK  165  A    between atoms: _419  and  _421
REMARK  166  A    between atoms: _421  and  _422
REMARK  167  A    between atoms: _421  and  _424
REMARK  168  A    between atoms: _424  and  _425
REMARK  169  A    between atoms: _428  and  _430
REMARK  170  A    between atoms: _430  and  _431
REMARK  171  A    between atoms: _430  and  _433
REMARK  172  A    between atoms: _433  and  _434
REMARK  173  A    between atoms: _444  and  _446
REMARK  174  A    between atoms: _446  and  _447
REMARK  175  A    between atoms: _446  and  _449
REMARK  176  A    between atoms: _449  and  _450
REMARK  177  A    between atoms: _450  and  _451
REMARK  178  A    between atoms: _453  and  _455
REMARK  179  A    between atoms: _455  and  _456
REMARK  180  A    between atoms: _455  and  _458
REMARK  181  A    between atoms: _458  and  _459
REMARK  182  A    between atoms: _464  and  _466
REMARK  183  A    between atoms: _466  and  _467
REMARK  184  A    between atoms: _470  and  _471
REMARK  185  A    between atoms: _476  and  _478
REMARK  186  A    between atoms: _478  and  _479
REMARK  187  A    between atoms: _478  and  _481
REMARK  188  A    between atoms: _481  and  _482
REMARK  189  A    between atoms: _492  and  _494
REMARK  190  A    between atoms: _494  and  _495
REMARK  191  A    between atoms: _499  and  _500
REMARK  192  A    between atoms: _505  and  _507
REMARK  193  A    between atoms: _507  and  _508
REMARK  194  A    between atoms: _507  and  _510
REMARK  195  A    between atoms: _510  and  _511
REMARK  196  A    between atoms: _511  and  _512
REMARK  197  A    between atoms: _517  and  _519
REMARK  198  A    between atoms: _519  and  _520
REMARK  199  A    between atoms: _522  and  _524
REMARK  200  A    between atoms: _524  and  _525
REMARK  201  A    between atoms: _527  and  _529
REMARK  202  A    between atoms: _529  and  _530
REMARK  203  A    between atoms: _529  and  _532
REMARK  204  A    between atoms: _532  and  _533
REMARK  205  A    between atoms: _543  and  _545
REMARK  206  A    between atoms: _545  and  _546
REMARK  207  A    between atoms: _545  and  _548
REMARK  208  A    between atoms: _548  and  _549
REMARK  209  A    between atoms: _552  and  _554
REMARK  210  A    between atoms: _554  and  _555
REMARK  211  A    between atoms: _554  and  _557
REMARK  212  A    between atoms: _557  and  _558
REMARK  213  A    between atoms: _561  and  _563
REMARK  214  A    between atoms: _563  and  _564
REMARK  215  A    between atoms: _563  and  _566
REMARK  216  A    between atoms: _566  and  _567
REMARK  217  A    between atoms: _567  and  _568
REMARK  218  A    between atoms: _568  and  _569
REMARK  219  A    between atoms: _578  and  _580
REMARK  220  A    between atoms: _580  and  _581
REMARK  221  A    between atoms: _580  and  _583
REMARK  222  A    between atoms: _583  and  _584
REMARK  223  A    between atoms: _594  and  _596
REMARK  224  A    between atoms: _596  and  _597
REMARK  225  A    between atoms: _599  and  _601
REMARK  226  A    between atoms: _601  and  _602
REMARK  227  A    between atoms: _601  and  _604
REMARK  228  A    between atoms: _604  and  _605
REMARK  229  A    between atoms: _610  and  _612
REMARK  230  A    between atoms: _612  and  _613
REMARK  231  A    between atoms: _616  and  _618
REMARK  232  A    between atoms: _618  and  _619
REMARK  233  A    between atoms: _618  and  _621
REMARK  234  A    between atoms: _621  and  _622
REMARK  235  A    between atoms: _625  and  _627
REMARK  236  A    between atoms: _627  and  _628
REMARK  237  A    between atoms: _627  and  _630
REMARK  238  A    between atoms: _630  and  _631
REMARK  239  A    between atoms: _637  and  _639
REMARK  240  A    between atoms: _639  and  _640
REMARK  241  A    between atoms: _639  and  _642
REMARK  242  A    between atoms: _642  and  _643
REMARK  243  A    between atoms: _643  and  _644
REMARK  244  A    between atoms: _647  and  _649
REMARK  245  A    between atoms: _649  and  _650
REMARK  246  A    between atoms: _649  and  _652
REMARK  247  A    between atoms: _652  and  _653
REMARK  248  A    between atoms: _653  and  _654
REMARK  249  A    between atoms: _654  and  _655
REMARK                            x       y       z     vdW  Elec       q    Type
REMARK                         _______ _______ _______ _____ _____    ______ ____
ROOT
ATOM      1  O   HOH     1      -9.120  -2.369  19.811  0.00  0.00    +0.000 OA
ENDROOT
TORSDOF 0
REMARK  Name = ../refined-set-2016/3jzj/3jzj_pocket.pdb
REMARK  249 active torsions:
REMARK  status: ('A' for Active; 'I' for Inactive)
REMARK    1  A    between atoms: _1  and  _3
REMARK    2  A    between atoms: _3  and  _4
REMARK    3  A    between atoms: _3  and  _6
REMARK    4  A    between atoms: _6  and  _7
REMARK    5  A    between atoms: _10  and  _12
REMARK    6  A    between atoms: _12  and  _13
REMARK    7  A    between atoms: _12  and  _15
REMARK    8  A    between atoms: _15  and  _16
REMARK    9  A    between atoms: _19  and  _21
REMARK   10  A    between atoms: _21  and  _22
REMARK   11  A    between atoms: _21  and  _24
REMARK   12  A    between atoms: _24  and  _25
REMARK   13  A    between atoms: _27  and  _29
REMARK   14  A    between atoms: _29  and  _30
REMARK   15  A    between atoms: _29  and  _32
REMARK   16  A    between atoms: _32  and  _33
REMARK   17  A    between atoms: _38  and  _40
REMARK   18  A    between atoms: _40  and  _41
REMARK   19  A    between atoms: _40  and  _43
REMARK   20  A    between atoms: _43  and  _44
REMARK   21  A    between atoms: _44  and  _45
REMARK   22  A    between atoms: _48  and  _50
REMARK   23  A    between atoms: _50  and  _51
REMARK   24  A    between atoms: _54  and  _56
REMARK   25  A    between atoms: _56  and  _57
REMARK   26  A    between atoms: _56  and  _59
REMARK   27  A    between atoms: _59  and  _60
REMARK   28  A    between atoms: _60  and  _61
REMARK   29  A    between atoms: _64  and  _66
REMARK   30  A    between atoms: _66  and  _67
REMARK   31  A    between atoms: _66  and  _69
REMARK   32  A    between atoms: _69  and  _70
REMARK   33  A    between atoms: _70  and  _71
REMARK   34  A    between atoms: _71  and  _72
REMARK   35  A    between atoms: _72  and  _73
REMARK   36  A    between atoms: _77  and  _79
REMARK   37  A    between atoms: _79  and  _80
REMARK   38  A    between atoms: _79  and  _82
REMARK   39  A    between atoms: _82  and  _83
REMARK   40  A    between atoms: _88  and  _89
REMARK   41  A    between atoms: _91  and  _93
REMARK   42  A    between atoms: _93  and  _94
REMARK   43  A    between atoms: _93  and  _96
REMARK   44  A    between atoms: _96  and  _97
REMARK   45  A    between atoms: _102  and  _104
REMARK   46  A    between atoms: _104  and  _105
REMARK   47  A    between atoms: _104  and  _107
REMARK   48  A    between atoms: _111  and  _112
REMARK   49  A    between atoms: _117  and  _119
REMARK   50  A    between atoms: _119  and  _120
REMARK   51  A    between atoms: _119  and  _122
REMARK   52  A    between atoms: _122  and  _123
REMARK   53  A    between atoms: _129  and  _131
REMARK   54  A    between atoms: _131  and  _132
REMARK   55  A    between atoms: _134  and  _136
REMARK   56  A    between atoms: _136  and  _137
REMARK   57  A    between atoms: _136  and  _139
REMARK   58  A    between atoms: _139  and  _140
REMARK   59  A    between atoms: _140  and  _141
REMARK   60  A    between atoms: _144  and  _146
REMARK   61  A    between atoms: _146  and  _147
REMARK   62  A    between atoms: _150  and  _152
REMARK   63  A    between atoms: _152  and  _153
REMARK   64  A    between atoms: _152  and  _155
REMARK   65  A    between atoms: _155  and  _156
REMARK   66  A    between atoms: _161  and  _163
REMARK   67  A    between atoms: _163  and  _164
REMARK   68  A    between atoms: _167  and  _169
REMARK   69  A    between atoms: _169  and  _170
REMARK   70  A    between atoms: _169  and  _172
REMARK   71  A    between atoms: _172  and  _173
REMARK   72  A    between atoms: _173  and  _174
REMARK   73  A    between atoms: _174  and  _175
REMARK   74  A    between atoms: _175  and  _176
REMARK   75  A    between atoms: _180  and  _182
REMARK   76  A    between atoms: _182  and  _183
REMARK   77  A    between atoms: _182  and  _185
REMARK   78  A    between atoms: _185  and  _186
REMARK   79  A    between atoms: _186  and  _187
REMARK   80  A    between atoms: _187  and  _188
REMARK   81  A    between atoms: _188  and  _189
REMARK   82  A    between atoms: _193  and  _195
REMARK   83  A    between atoms: _195  and  _196
REMARK   84  A    between atoms: _195  and  _198
REMARK   85  A    between atoms: _198  and  _199
REMARK   86  A    between atoms: _199  and  _200
REMARK   87  A    between atoms: _200  and  _201
REMARK   88  A    between atoms: _210  and  _212
REMARK   89  A    between atoms: _212  and  _213
REMARK   90  A    between atoms: _212  and  _215
REMARK   91  A    between atoms: _215  and  _216
REMARK   92  A    between atoms: _216  and  _217
REMARK   93  A    between atoms: _220  and  _222
REMARK   94  A    between atoms: _222  and  _223
REMARK   95  A    between atoms: _222  and  _225
REMARK   96  A    between atoms: _228  and  _230
REMARK   97  A    between atoms: _230  and  _231
REMARK   98  A    between atoms: _234  and  _236
REMARK   99  A    between atoms: _236  and  _237
REMARK  100  A    between atoms: _236  and  _239
REMARK  101  A    between atoms: _239  and  _240
REMARK  102  A    between atoms: _250  and  _252
REMARK  103  A    between atoms: _252  and  _253
REMARK  104  A    between atoms: _252  and  _255
REMARK  105  A    between atoms: _258  and  _260
REMARK  106  A    between atoms: _260  and  _261
REMARK  107  A    between atoms: _260  and  _263
REMARK  108  A    between atoms: _263  and  _264
REMARK  109  A    between atoms: _267  and  _269
REMARK  110  A    between atoms: _269  and  _270
REMARK  111  A    between atoms: _269  and  _272
REMARK  112  A    between atoms: _272  and  _273
REMARK  113  A    between atoms: _279  and  _281
REMARK  114  A    between atoms: _281  and  _282
REMARK  115  A    between atoms: _281  and  _284
REMARK  116  A    between atoms: _284  and  _285
REMARK  117  A    between atoms: _285  and  _286
REMARK  118  A    between atoms: _291  and  _293
REMARK  119  A    between atoms: _293  and  _294
REMARK  120  A    between atoms: _293  and  _296
REMARK  121  A    between atoms: _299  and  _301
REMARK  122  A    between atoms: _301  and  _302
REMARK  123  A    between atoms: _301  and  _304
REMARK  124  A    between atoms: _304  and  _305
REMARK  125  A    between atoms: _308  and  _310
REMARK  126  A    between atoms: _310  and  _311
REMARK  127  A    between atoms: _310  and  _313
REMARK  128  A    between atoms: _313  and  _314
REMARK  129  A    between atoms: _317  and  _319
REMARK  130  A    between atoms: _319  and  _320
REMARK  131  A    between atoms: _319  and  _322
REMARK  132  A    between atoms: _322  and  _323
REMARK  133  A    between atoms: _326  and  _328
REMARK  134  A    between atoms: _328  and  _329
REMARK  135  A    between atoms: _328  and  _331
REMARK  136  A    between atoms: _331  and  _332
REMARK  137  A    between atoms: _335  and  _337
REMARK  138  A    between atoms: _337  and  _338
REMARK  139  A    between atoms: _337  and  _340
REMARK  140  A    between atoms: _340  and  _341
REMARK  141  A    between atoms: _341  and  _342
REMARK  142  A    between atoms: _342  and  _343
REMARK  143  A    between atoms: _352  and  _354
REMARK  144  A    between atoms: _354  and  _355
REMARK  145  A    between atoms: _354  and  _357
REMARK  146  A    between atoms: _357  and  _358
REMARK  147  A    between atoms: _361  and  _363
REMARK  148  A    between atoms: _363  and  _364
REMARK  149  A    between atoms: _363  and  _366
REMARK  150  A    between atoms: _366  and  _367
REMARK  151  A    between atoms: _371  and  _372
REMARK  152  A    between atoms: _377  and  _379
REMARK  153  A    between atoms: _379  and  _380
REMARK  154  A    between atoms: _379  and  _382
REMARK  155  A    between atoms: _382  and  _383
REMARK  156  A    between atoms: _388  and  _389
REMARK  157  A    between atoms: _391  and  _393
REMARK  158  A    between atoms: _393  and  _394
REMARK  159  A    between atoms: _393  and  _396
REMARK  160  A    between atoms: _396  and  _397
REMARK  161  A    between atoms: _407  and  _409
REMARK  162  A    between atoms: _409  and  _410
REMARK  163  A    between atoms: _409  and  _412
REMARK  164  A    between atoms: _412  and  _413
REMARK  165  A    between atoms: _419  and  _421
REMARK  166  A    between atoms: _421  and  _422
REMARK  167  A    between atoms: _421  and  _424
REMARK  168  A    between atoms: _424  and  _425
REMARK  169  A    between atoms: _428  and  _430
REMARK  170  A    between atoms: _430  and  _431
REMARK  171  A    between atoms: _430  and  _433
REMARK  172  A    between atoms: _433  and  _434
REMARK  173  A    between atoms: _444  and  _446
REMARK  174  A    between atoms: _446  and  _447
REMARK  175  A    between atoms: _446  and  _449
REMARK  176  A    between atoms: _449  and  _450
REMARK  177  A    between atoms: _450  and  _451
REMARK  178  A    between atoms: _453  and  _455
REMARK  179  A    between atoms: _455  and  _456
REMARK  180  A    between atoms: _455  and  _458
REMARK  181  A    between atoms: _458  and  _459
REMARK  182  A    between atoms: _464  and  _466
REMARK  183  A    between atoms: _466  and  _467
REMARK  184  A    between atoms: _470  and  _471
REMARK  185  A    between atoms: _476  and  _478
REMARK  186  A    between atoms: _478  and  _479
REMARK  187  A    between atoms: _478  and  _481
REMARK  188  A    between atoms: _481  and  _482
REMARK  189  A    between atoms: _492  and  _494
REMARK  190  A    between atoms: _494  and  _495
REMARK  191  A    between atoms: _499  and  _500
REMARK  192  A    between atoms: _505  and  _507
REMARK  193  A    between atoms: _507  and  _508
REMARK  194  A    between atoms: _507  and  _510
REMARK  195  A    between atoms: _510  and  _511
REMARK  196  A    between atoms: _511  and  _512
REMARK  197  A    between atoms: _517  and  _519
REMARK  198  A    between atoms: _519  and  _520
REMARK  199  A    between atoms: _522  and  _524
REMARK  200  A    between atoms: _524  and  _525
REMARK  201  A    between atoms: _527  and  _529
REMARK  202  A    between atoms: _529  and  _530
REMARK  203  A    between atoms: _529  and  _532
REMARK  204  A    between atoms: _532  and  _533
REMARK  205  A    between atoms: _543  and  _545
REMARK  206  A    between atoms: _545  and  _546
REMARK  207  A    between atoms: _545  and  _548
REMARK  208  A    between atoms: _548  and  _549
REMARK  209  A    between atoms: _552  and  _554
REMARK  210  A    between atoms: _554  and  _555
REMARK  211  A    between atoms: _554  and  _557
REMARK  212  A    between atoms: _557  and  _558
REMARK  213  A    between atoms: _561  and  _563
REMARK  214  A    between atoms: _563  and  _564
REMARK  215  A    between atoms: _563  and  _566
REMARK  216  A    between atoms: _566  and  _567
REMARK  217  A    between atoms: _567  and  _568
REMARK  218  A    between atoms: _568  and  _569
REMARK  219  A    between atoms: _578  and  _580
REMARK  220  A    between atoms: _580  and  _581
REMARK  221  A    between atoms: _580  and  _583
REMARK  222  A    between atoms: _583  and  _584
REMARK  223  A    between atoms: _594  and  _596
REMARK  224  A    between atoms: _596  and  _597
REMARK  225  A    between atoms: _599  and  _601
REMARK  226  A    between atoms: _601  and  _602
REMARK  227  A    between atoms: _601  and  _604
REMARK  228  A    between atoms: _604  and  _605
REMARK  229  A    between atoms: _610  and  _612
REMARK  230  A    between atoms: _612  and  _613
REMARK  231  A    between atoms: _616  and  _618
REMARK  232  A    between atoms: _618  and  _619
REMARK  233  A    between atoms: _618  and  _621
REMARK  234  A    between atoms: _621  and  _622
REMARK  235  A    between atoms: _625  and  _627
REMARK  236  A    between atoms: _627  and  _628
REMARK  237  A    between atoms: _627  and  _630
REMARK  238  A    between atoms: _630  and  _631
REMARK  239  A    between atoms: _637  and  _639
REMARK  240  A    between atoms: _639  and  _640
REMARK  241  A    between atoms: _639  and  _642
REMARK  242  A    between atoms: _642  and  _643
REMARK  243  A    between atoms: _643  and  _644
REMARK  244  A    between atoms: _647  and  _649
REMARK  245  A    between atoms: _649  and  _650
REMARK  246  A    between atoms: _649  and  _652
REMARK  247  A    between atoms: _652  and  _653
REMARK  248  A    between atoms: _653  and  _654
REMARK  249  A    between atoms: _654  and  _655
REMARK                            x       y       z     vdW  Elec       q    Type
REMARK                         _______ _______ _______ _____ _____    ______ ____
ROOT
ATOM      1  O   HOH     1       1.718   3.260  20.932  0.00  0.00    +0.000 OA
ENDROOT
TORSDOF 0
REMARK  Name = ../refined-set-2016/3jzj/3jzj_pocket.pdb
REMARK  249 active torsions:
REMARK  status: ('A' for Active; 'I' for Inactive)
REMARK    1  A    between atoms: _1  and  _3
REMARK    2  A    between atoms: _3  and  _4
REMARK    3  A    between atoms: _3  and  _6
REMARK    4  A    between atoms: _6  and  _7
REMARK    5  A    between atoms: _10  and  _12
REMARK    6  A    between atoms: _12  and  _13
REMARK    7  A    between atoms: _12  and  _15
REMARK    8  A    between atoms: _15  and  _16
REMARK    9  A    between atoms: _19  and  _21
REMARK   10  A    between atoms: _21  and  _22
REMARK   11  A    between atoms: _21  and  _24
REMARK   12  A    between atoms: _24  and  _25
REMARK   13  A    between atoms: _27  and  _29
REMARK   14  A    between atoms: _29  and  _30
REMARK   15  A    between atoms: _29  and  _32
REMARK   16  A    between atoms: _32  and  _33
REMARK   17  A    between atoms: _38  and  _40
REMARK   18  A    between atoms: _40  and  _41
REMARK   19  A    between atoms: _40  and  _43
REMARK   20  A    between atoms: _43  and  _44
REMARK   21  A    between atoms: _44  and  _45
REMARK   22  A    between atoms: _48  and  _50
REMARK   23  A    between atoms: _50  and  _51
REMARK   24  A    between atoms: _54  and  _56
REMARK   25  A    between atoms: _56  and  _57
REMARK   26  A    between atoms: _56  and  _59
REMARK   27  A    between atoms: _59  and  _60
REMARK   28  A    between atoms: _60  and  _61
REMARK   29  A    between atoms: _64  and  _66
REMARK   30  A    between atoms: _66  and  _67
REMARK   31  A    between atoms: _66  and  _69
REMARK   32  A    between atoms: _69  and  _70
REMARK   33  A    between atoms: _70  and  _71
REMARK   34  A    between atoms: _71  and  _72
REMARK   35  A    between atoms: _72  and  _73
REMARK   36  A    between atoms: _77  and  _79
REMARK   37  A    between atoms: _79  and  _80
REMARK   38  A    between atoms: _79  and  _82
REMARK   39  A    between atoms: _82  and  _83
REMARK   40  A    between atoms: _88  and  _89
REMARK   41  A    between atoms: _91  and  _93
REMARK   42  A    between atoms: _93  and  _94
REMARK   43  A    between atoms: _93  and  _96
REMARK   44  A    between atoms: _96  and  _97
REMARK   45  A    between atoms: _102  and  _104
REMARK   46  A    between atoms: _104  and  _105
REMARK   47  A    between atoms: _104  and  _107
REMARK   48  A    between atoms: _111  and  _112
REMARK   49  A    between atoms: _117  and  _119
REMARK   50  A    between atoms: _119  and  _120
REMARK   51  A    between atoms: _119  and  _122
REMARK   52  A    between atoms: _122  and  _123
REMARK   53  A    between atoms: _129  and  _131
REMARK   54  A    between atoms: _131  and  _132
REMARK   55  A    between atoms: _134  and  _136
REMARK   56  A    between atoms: _136  and  _137
REMARK   57  A    between atoms: _136  and  _139
REMARK   58  A    between atoms: _139  and  _140
REMARK   59  A    between atoms: _140  and  _141
REMARK   60  A    between atoms: _144  and  _146
REMARK   61  A    between atoms: _146  and  _147
REMARK   62  A    between atoms: _150  and  _152
REMARK   63  A    between atoms: _152  and  _153
REMARK   64  A    between atoms: _152  and  _155
REMARK   65  A    between atoms: _155  and  _156
REMARK   66  A    between atoms: _161  and  _163
REMARK   67  A    between atoms: _163  and  _164
REMARK   68  A    between atoms: _167  and  _169
REMARK   69  A    between atoms: _169  and  _170
REMARK   70  A    between atoms: _169  and  _172
REMARK   71  A    between atoms: _172  and  _173
REMARK   72  A    between atoms: _173  and  _174
REMARK   73  A    between atoms: _174  and  _175
REMARK   74  A    between atoms: _175  and  _176
REMARK   75  A    between atoms: _180  and  _182
REMARK   76  A    between atoms: _182  and  _183
REMARK   77  A    between atoms: _182  and  _185
REMARK   78  A    between atoms: _185  and  _186
REMARK   79  A    between atoms: _186  and  _187
REMARK   80  A    between atoms: _187  and  _188
REMARK   81  A    between atoms: _188  and  _189
REMARK   82  A    between atoms: _193  and  _195
REMARK   83  A    between atoms: _195  and  _196
REMARK   84  A    between atoms: _195  and  _198
REMARK   85  A    between atoms: _198  and  _199
REMARK   86  A    between atoms: _199  and  _200
REMARK   87  A    between atoms: _200  and  _201
REMARK   88  A    between atoms: _210  and  _212
REMARK   89  A    between atoms: _212  and  _213
REMARK   90  A    between atoms: _212  and  _215
REMARK   91  A    between atoms: _215  and  _216
REMARK   92  A    between atoms: _216  and  _217
REMARK   93  A    between atoms: _220  and  _222
REMARK   94  A    between atoms: _222  and  _223
REMARK   95  A    between atoms: _222  and  _225
REMARK   96  A    between atoms: _228  and  _230
REMARK   97  A    between atoms: _230  and  _231
REMARK   98  A    between atoms: _234  and  _236
REMARK   99  A    between atoms: _236  and  _237
REMARK  100  A    between atoms: _236  and  _239
REMARK  101  A    between atoms: _239  and  _240
REMARK  102  A    between atoms: _250  and  _252
REMARK  103  A    between atoms: _252  and  _253
REMARK  104  A    between atoms: _252  and  _255
REMARK  105  A    between atoms: _258  and  _260
REMARK  106  A    between atoms: _260  and  _261
REMARK  107  A    between atoms: _260  and  _263
REMARK  108  A    between atoms: _263  and  _264
REMARK  109  A    between atoms: _267  and  _269
REMARK  110  A    between atoms: _269  and  _270
REMARK  111  A    between atoms: _269  and  _272
REMARK  112  A    between atoms: _272  and  _273
REMARK  113  A    between atoms: _279  and  _281
REMARK  114  A    between atoms: _281  and  _282
REMARK  115  A    between atoms: _281  and  _284
REMARK  116  A    between atoms: _284  and  _285
REMARK  117  A    between atoms: _285  and  _286
REMARK  118  A    between atoms: _291  and  _293
REMARK  119  A    between atoms: _293  and  _294
REMARK  120  A    between atoms: _293  and  _296
REMARK  121  A    between atoms: _299  and  _301
REMARK  122  A    between atoms: _301  and  _302
REMARK  123  A    between atoms: _301  and  _304
REMARK  124  A    between atoms: _304  and  _305
REMARK  125  A    between atoms: _308  and  _310
REMARK  126  A    between atoms: _310  and  _311
REMARK  127  A    between atoms: _310  and  _313
REMARK  128  A    between atoms: _313  and  _314
REMARK  129  A    between atoms: _317  and  _319
REMARK  130  A    between atoms: _319  and  _320
REMARK  131  A    between atoms: _319  and  _322
REMARK  132  A    between atoms: _322  and  _323
REMARK  133  A    between atoms: _326  and  _328
REMARK  134  A    between atoms: _328  and  _329
REMARK  135  A    between atoms: _328  and  _331
REMARK  136  A    between atoms: _331  and  _332
REMARK  137  A    between atoms: _335  and  _337
REMARK  138  A    between atoms: _337  and  _338
REMARK  139  A    between atoms: _337  and  _340
REMARK  140  A    between atoms: _340  and  _341
REMARK  141  A    between atoms: _341  and  _342
REMARK  142  A    between atoms: _342  and  _343
REMARK  143  A    between atoms: _352  and  _354
REMARK  144  A    between atoms: _354  and  _355
REMARK  145  A    between atoms: _354  and  _357
REMARK  146  A    between atoms: _357  and  _358
REMARK  147  A    between atoms: _361  and  _363
REMARK  148  A    between atoms: _363  and  _364
REMARK  149  A    between atoms: _363  and  _366
REMARK  150  A    between atoms: _366  and  _367
REMARK  151  A    between atoms: _371  and  _372
REMARK  152  A    between atoms: _377  and  _379
REMARK  153  A    between atoms: _379  and  _380
REMARK  154  A    between atoms: _379  and  _382
REMARK  155  A    between atoms: _382  and  _383
REMARK  156  A    between atoms: _388  and  _389
REMARK  157  A    between atoms: _391  and  _393
REMARK  158  A    between atoms: _393  and  _394
REMARK  159  A    between atoms: _393  and  _396
REMARK  160  A    between atoms: _396  and  _397
REMARK  161  A    between atoms: _407  and  _409
REMARK  162  A    between atoms: _409  and  _410
REMARK  163  A    between atoms: _409  and  _412
REMARK  164  A    between atoms: _412  and  _413
REMARK  165  A    between atoms: _419  and  _421
REMARK  166  A    between atoms: _421  and  _422
REMARK  167  A    between atoms: _421  and  _424
REMARK  168  A    between atoms: _424  and  _425
REMARK  169  A    between atoms: _428  and  _430
REMARK  170  A    between atoms: _430  and  _431
REMARK  171  A    between atoms: _430  and  _433
REMARK  172  A    between atoms: _433  and  _434
REMARK  173  A    between atoms: _444  and  _446
REMARK  174  A    between atoms: _446  and  _447
REMARK  175  A    between atoms: _446  and  _449
REMARK  176  A    between atoms: _449  and  _450
REMARK  177  A    between atoms: _450  and  _451
REMARK  178  A    between atoms: _453  and  _455
REMARK  179  A    between atoms: _455  and  _456
REMARK  180  A    between atoms: _455  and  _458
REMARK  181  A    between atoms: _458  and  _459
REMARK  182  A    between atoms: _464  and  _466
REMARK  183  A    between atoms: _466  and  _467
REMARK  184  A    between atoms: _470  and  _471
REMARK  185  A    between atoms: _476  and  _478
REMARK  186  A    between atoms: _478  and  _479
REMARK  187  A    between atoms: _478  and  _481
REMARK  188  A    between atoms: _481  and  _482
REMARK  189  A    between atoms: _492  and  _494
REMARK  190  A    between atoms: _494  and  _495
REMARK  191  A    between atoms: _499  and  _500
REMARK  192  A    between atoms: _505  and  _507
REMARK  193  A    between atoms: _507  and  _508
REMARK  194  A    between atoms: _507  and  _510
REMARK  195  A    between atoms: _510  and  _511
REMARK  196  A    between atoms: _511  and  _512
REMARK  197  A    between atoms: _517  and  _519
REMARK  198  A    between atoms: _519  and  _520
REMARK  199  A    between atoms: _522  and  _524
REMARK  200  A    between atoms: _524  and  _525
REMARK  201  A    between atoms: _527  and  _529
REMARK  202  A    between atoms: _529  and  _530
REMARK  203  A    between atoms: _529  and  _532
REMARK  204  A    between atoms: _532  and  _533
REMARK  205  A    between atoms: _543  and  _545
REMARK  206  A    between atoms: _545  and  _546
REMARK  207  A    between atoms: _545  and  _548
REMARK  208  A    between atoms: _548  and  _549
REMARK  209  A    between atoms: _552  and  _554
REMARK  210  A    between atoms: _554  and  _555
REMARK  211  A    between atoms: _554  and  _557
REMARK  212  A    between atoms: _557  and  _558
REMARK  213  A    between atoms: _561  and  _563
REMARK  214  A    between atoms: _563  and  _564
REMARK  215  A    between atoms: _563  and  _566
REMARK  216  A    between atoms: _566  and  _567
REMARK  217  A    between atoms: _567  and  _568
REMARK  218  A    between atoms: _568  and  _569
REMARK  219  A    between atoms: _578  and  _580
REMARK  220  A    between atoms: _580  and  _581
REMARK  221  A    between atoms: _580  and  _583
REMARK  222  A    between atoms: _583  and  _584
REMARK  223  A    between atoms: _594  and  _596
REMARK  224  A    between atoms: _596  and  _597
REMARK  225  A    between atoms: _599  and  _601
REMARK  226  A    between atoms: _601  and  _602
REMARK  227  A    between atoms: _601  and  _604
REMARK  228  A    between atoms: _604  and  _605
REMARK  229  A    between atoms: _610  and  _612
REMARK  230  A    between atoms: _612  and  _613
REMARK  231  A    between atoms: _616  and  _618
REMARK  232  A    between atoms: _618  and  _619
REMARK  233  A    between atoms: _618  and  _621
REMARK  234  A    between atoms: _621  and  _622
REMARK  235  A    between atoms: _625  and  _627
REMARK  236  A    between atoms: _627  and  _628
REMARK  237  A    between atoms: _627  and  _630
REMARK  238  A    between atoms: _630  and  _631
REMARK  239  A    between atoms: _637  and  _639
REMARK  240  A    between atoms: _639  and  _640
REMARK  241  A    between atoms: _639  and  _642
REMARK  242  A    between atoms: _642  and  _643
REMARK  243  A    between atoms: _643  and  _644
REMARK  244  A    between atoms: _647  and  _649
REMARK  245  A    between atoms: _649  and  _650
REMARK  246  A    between atoms: _649  and  _652
REMARK  247  A    between atoms: _652  and  _653
REMARK  248  A    between atoms: _653  and  _654
REMARK  249  A    between atoms: _654  and  _655
REMARK                            x       y       z     vdW  Elec       q    Type
REMARK                         _______ _______ _______ _____ _____    ______ ____
ROOT
ATOM      1  O   HOH     1      -5.425 -12.786  15.805  0.00  0.00    +0.000 OA
ENDROOT
TORSDOF 0
REMARK  Name = ../refined-set-2016/3jzj/3jzj_pocket.pdb
REMARK  249 active torsions:
REMARK  status: ('A' for Active; 'I' for Inactive)
REMARK    1  A    between atoms: _1  and  _3
REMARK    2  A    between atoms: _3  and  _4
REMARK    3  A    between atoms: _3  and  _6
REMARK    4  A    between atoms: _6  and  _7
REMARK    5  A    between atoms: _10  and  _12
REMARK    6  A    between atoms: _12  and  _13
REMARK    7  A    between atoms: _12  and  _15
REMARK    8  A    between atoms: _15  and  _16
REMARK    9  A    between atoms: _19  and  _21
REMARK   10  A    between atoms: _21  and  _22
REMARK   11  A    between atoms: _21  and  _24
REMARK   12  A    between atoms: _24  and  _25
REMARK   13  A    between atoms: _27  and  _29
REMARK   14  A    between atoms: _29  and  _30
REMARK   15  A    between atoms: _29  and  _32
REMARK   16  A    between atoms: _32  and  _33
REMARK   17  A    between atoms: _38  and  _40
REMARK   18  A    between atoms: _40  and  _41
REMARK   19  A    between atoms: _40  and  _43
REMARK   20  A    between atoms: _43  and  _44
REMARK   21  A    between atoms: _44  and  _45
REMARK   22  A    between atoms: _48  and  _50
REMARK   23  A    between atoms: _50  and  _51
REMARK   24  A    between atoms: _54  and  _56
REMARK   25  A    between atoms: _56  and  _57
REMARK   26  A    between atoms: _56  and  _59
REMARK   27  A    between atoms: _59  and  _60
REMARK   28  A    between atoms: _60  and  _61
REMARK   29  A    between atoms: _64  and  _66
REMARK   30  A    between atoms: _66  and  _67
REMARK   31  A    between atoms: _66  and  _69
REMARK   32  A    between atoms: _69  and  _70
REMARK   33  A    between atoms: _70  and  _71
REMARK   34  A    between atoms: _71  and  _72
REMARK   35  A    between atoms: _72  and  _73
REMARK   36  A    between atoms: _77  and  _79
REMARK   37  A    between atoms: _79  and  _80
REMARK   38  A    between atoms: _79  and  _82
REMARK   39  A    between atoms: _82  and  _83
REMARK   40  A    between atoms: _88  and  _89
REMARK   41  A    between atoms: _91  and  _93
REMARK   42  A    between atoms: _93  and  _94
REMARK   43  A    between atoms: _93  and  _96
REMARK   44  A    between atoms: _96  and  _97
REMARK   45  A    between atoms: _102  and  _104
REMARK   46  A    between atoms: _104  and  _105
REMARK   47  A    between atoms: _104  and  _107
REMARK   48  A    between atoms: _111  and  _112
REMARK   49  A    between atoms: _117  and  _119
REMARK   50  A    between atoms: _119  and  _120
REMARK   51  A    between atoms: _119  and  _122
REMARK   52  A    between atoms: _122  and  _123
REMARK   53  A    between atoms: _129  and  _131
REMARK   54  A    between atoms: _131  and  _132
REMARK   55  A    between atoms: _134  and  _136
REMARK   56  A    between atoms: _136  and  _137
REMARK   57  A    between atoms: _136  and  _139
REMARK   58  A    between atoms: _139  and  _140
REMARK   59  A    between atoms: _140  and  _141
REMARK   60  A    between atoms: _144  and  _146
REMARK   61  A    between atoms: _146  and  _147
REMARK   62  A    between atoms: _150  and  _152
REMARK   63  A    between atoms: _152  and  _153
REMARK   64  A    between atoms: _152  and  _155
REMARK   65  A    between atoms: _155  and  _156
REMARK   66  A    between atoms: _161  and  _163
REMARK   67  A    between atoms: _163  and  _164
REMARK   68  A    between atoms: _167  and  _169
REMARK   69  A    between atoms: _169  and  _170
REMARK   70  A    between atoms: _169  and  _172
REMARK   71  A    between atoms: _172  and  _173
REMARK   72  A    between atoms: _173  and  _174
REMARK   73  A    between atoms: _174  and  _175
REMARK   74  A    between atoms: _175  and  _176
REMARK   75  A    between atoms: _180  and  _182
REMARK   76  A    between atoms: _182  and  _183
REMARK   77  A    between atoms: _182  and  _185
REMARK   78  A    between atoms: _185  and  _186
REMARK   79  A    between atoms: _186  and  _187
REMARK   80  A    between atoms: _187  and  _188
REMARK   81  A    between atoms: _188  and  _189
REMARK   82  A    between atoms: _193  and  _195
REMARK   83  A    between atoms: _195  and  _196
REMARK   84  A    between atoms: _195  and  _198
REMARK   85  A    between atoms: _198  and  _199
REMARK   86  A    between atoms: _199  and  _200
REMARK   87  A    between atoms: _200  and  _201
REMARK   88  A    between atoms: _210  and  _212
REMARK   89  A    between atoms: _212  and  _213
REMARK   90  A    between atoms: _212  and  _215
REMARK   91  A    between atoms: _215  and  _216
REMARK   92  A    between atoms: _216  and  _217
REMARK   93  A    between atoms: _220  and  _222
REMARK   94  A    between atoms: _222  and  _223
REMARK   95  A    between atoms: _222  and  _225
REMARK   96  A    between atoms: _228  and  _230
REMARK   97  A    between atoms: _230  and  _231
REMARK   98  A    between atoms: _234  and  _236
REMARK   99  A    between atoms: _236  and  _237
REMARK  100  A    between atoms: _236  and  _239
REMARK  101  A    between atoms: _239  and  _240
REMARK  102  A    between atoms: _250  and  _252
REMARK  103  A    between atoms: _252  and  _253
REMARK  104  A    between atoms: _252  and  _255
REMARK  105  A    between atoms: _258  and  _260
REMARK  106  A    between atoms: _260  and  _261
REMARK  107  A    between atoms: _260  and  _263
REMARK  108  A    between atoms: _263  and  _264
REMARK  109  A    between atoms: _267  and  _269
REMARK  110  A    between atoms: _269  and  _270
REMARK  111  A    between atoms: _269  and  _272
REMARK  112  A    between atoms: _272  and  _273
REMARK  113  A    between atoms: _279  and  _281
REMARK  114  A    between atoms: _281  and  _282
REMARK  115  A    between atoms: _281  and  _284
REMARK  116  A    between atoms: _284  and  _285
REMARK  117  A    between atoms: _285  and  _286
REMARK  118  A    between atoms: _291  and  _293
REMARK  119  A    between atoms: _293  and  _294
REMARK  120  A    between atoms: _293  and  _296
REMARK  121  A    between atoms: _299  and  _301
REMARK  122  A    between atoms: _301  and  _302
REMARK  123  A    between atoms: _301  and  _304
REMARK  124  A    between atoms: _304  and  _305
REMARK  125  A    between atoms: _308  and  _310
REMARK  126  A    between atoms: _310  and  _311
REMARK  127  A    between atoms: _310  and  _313
REMARK  128  A    between atoms: _313  and  _314
REMARK  129  A    between atoms: _317  and  _319
REMARK  130  A    between atoms: _319  and  _320
REMARK  131  A    between atoms: _319  and  _322
REMARK  132  A    between atoms: _322  and  _323
REMARK  133  A    between atoms: _326  and  _328
REMARK  134  A    between atoms: _328  and  _329
REMARK  135  A    between atoms: _328  and  _331
REMARK  136  A    between atoms: _331  and  _332
REMARK  137  A    between atoms: _335  and  _337
REMARK  138  A    between atoms: _337  and  _338
REMARK  139  A    between atoms: _337  and  _340
REMARK  140  A    between atoms: _340  and  _341
REMARK  141  A    between atoms: _341  and  _342
REMARK  142  A    between atoms: _342  and  _343
REMARK  143  A    between atoms: _352  and  _354
REMARK  144  A    between atoms: _354  and  _355
REMARK  145  A    between atoms: _354  and  _357
REMARK  146  A    between atoms: _357  and  _358
REMARK  147  A    between atoms: _361  and  _363
REMARK  148  A    between atoms: _363  and  _364
REMARK  149  A    between atoms: _363  and  _366
REMARK  150  A    between atoms: _366  and  _367
REMARK  151  A    between atoms: _371  and  _372
REMARK  152  A    between atoms: _377  and  _379
REMARK  153  A    between atoms: _379  and  _380
REMARK  154  A    between atoms: _379  and  _382
REMARK  155  A    between atoms: _382  and  _383
REMARK  156  A    between atoms: _388  and  _389
REMARK  157  A    between atoms: _391  and  _393
REMARK  158  A    between atoms: _393  and  _394
REMARK  159  A    between atoms: _393  and  _396
REMARK  160  A    between atoms: _396  and  _397
REMARK  161  A    between atoms: _407  and  _409
REMARK  162  A    between atoms: _409  and  _410
REMARK  163  A    between atoms: _409  and  _412
REMARK  164  A    between atoms: _412  and  _413
REMARK  165  A    between atoms: _419  and  _421
REMARK  166  A    between atoms: _421  and  _422
REMARK  167  A    between atoms: _421  and  _424
REMARK  168  A    between atoms: _424  and  _425
REMARK  169  A    between atoms: _428  and  _430
REMARK  170  A    between atoms: _430  and  _431
REMARK  171  A    between atoms: _430  and  _433
REMARK  172  A    between atoms: _433  and  _434
REMARK  173  A    between atoms: _444  and  _446
REMARK  174  A    between atoms: _446  and  _447
REMARK  175  A    between atoms: _446  and  _449
REMARK  176  A    between atoms: _449  and  _450
REMARK  177  A    between atoms: _450  and  _451
REMARK  178  A    between atoms: _453  and  _455
REMARK  179  A    between atoms: _455  and  _456
REMARK  180  A    between atoms: _455  and  _458
REMARK  181  A    between atoms: _458  and  _459
REMARK  182  A    between atoms: _464  and  _466
REMARK  183  A    between atoms: _466  and  _467
REMARK  184  A    between atoms: _470  and  _471
REMARK  185  A    between atoms: _476  and  _478
REMARK  186  A    between atoms: _478  and  _479
REMARK  187  A    between atoms: _478  and  _481
REMARK  188  A    between atoms: _481  and  _482
REMARK  189  A    between atoms: _492  and  _494
REMARK  190  A    between atoms: _494  and  _495
REMARK  191  A    between atoms: _499  and  _500
REMARK  192  A    between atoms: _505  and  _507
REMARK  193  A    between atoms: _507  and  _508
REMARK  194  A    between atoms: _507  and  _510
REMARK  195  A    between atoms: _510  and  _511
REMARK  196  A    between atoms: _511  and  _512
REMARK  197  A    between atoms: _517  and  _519
REMARK  198  A    between atoms: _519  and  _520
REMARK  199  A    between atoms: _522  and  _524
REMARK  200  A    between atoms: _524  and  _525
REMARK  201  A    between atoms: _527  and  _529
REMARK  202  A    between atoms: _529  and  _530
REMARK  203  A    between atoms: _529  and  _532
REMARK  204  A    between atoms: _532  and  _533
REMARK  205  A    between atoms: _543  and  _545
REMARK  206  A    between atoms: _545  and  _546
REMARK  207  A    between atoms: _545  and  _548
REMARK  208  A    between atoms: _548  and  _549
REMARK  209  A    between atoms: _552  and  _554
REMARK  210  A    between atoms: _554  and  _555
REMARK  211  A    between atoms: _554  and  _557
REMARK  212  A    between atoms: _557  and  _558
REMARK  213  A    between atoms: _561  and  _563
REMARK  214  A    between atoms: _563  and  _564
REMARK  215  A    between atoms: _563  and  _566
REMARK  216  A    between atoms: _566  and  _567
REMARK  217  A    between atoms: _567  and  _568
REMARK  218  A    between atoms: _568  and  _569
REMARK  219  A    between atoms: _578  and  _580
REMARK  220  A    between atoms: _580  and  _581
REMARK  221  A    between atoms: _580  and  _583
REMARK  222  A    between atoms: _583  and  _584
REMARK  223  A    between atoms: _594  and  _596
REMARK  224  A    between atoms: _596  and  _597
REMARK  225  A    between atoms: _599  and  _601
REMARK  226  A    between atoms: _601  and  _602
REMARK  227  A    between atoms: _601  and  _604
REMARK  228  A    between atoms: _604  and  _605
REMARK  229  A    between atoms: _610  and  _612
REMARK  230  A    between atoms: _612  and  _613
REMARK  231  A    between atoms: _616  and  _618
REMARK  232  A    between atoms: _618  and  _619
REMARK  233  A    between atoms: _618  and  _621
REMARK  234  A    between atoms: _621  and  _622
REMARK  235  A    between atoms: _625  and  _627
REMARK  236  A    between atoms: _627  and  _628
REMARK  237  A    between atoms: _627  and  _630
REMARK  238  A    between atoms: _630  and  _631
REMARK  239  A    between atoms: _637  and  _639
REMARK  240  A    between atoms: _639  and  _640
REMARK  241  A    between atoms: _639  and  _642
REMARK  242  A    between atoms: _642  and  _643
REMARK  243  A    between atoms: _643  and  _644
REMARK  244  A    between atoms: _647  and  _649
REMARK  245  A    between atoms: _649  and  _650
REMARK  246  A    between atoms: _649  and  _652
REMARK  247  A    between atoms: _652  and  _653
REMARK  248  A    between atoms: _653  and  _654
REMARK  249  A    between atoms: _654  and  _655
REMARK                            x       y       z     vdW  Elec       q    Type
REMARK                         _______ _______ _______ _____ _____    ______ ____
ROOT
ATOM      1  O   HOH     1     -16.731  -9.511  25.518  0.00  0.00    +0.000 OA
ENDROOT
TORSDOF 0
REMARK  Name = ../refined-set-2016/3jzj/3jzj_pocket.pdb
REMARK  249 active torsions:
REMARK  status: ('A' for Active; 'I' for Inactive)
REMARK    1  A    between atoms: _1  and  _3
REMARK    2  A    between atoms: _3  and  _4
REMARK    3  A    between atoms: _3  and  _6
REMARK    4  A    between atoms: _6  and  _7
REMARK    5  A    between atoms: _10  and  _12
REMARK    6  A    between atoms: _12  and  _13
REMARK    7  A    between atoms: _12  and  _15
REMARK    8  A    between atoms: _15  and  _16
REMARK    9  A    between atoms: _19  and  _21
REMARK   10  A    between atoms: _21  and  _22
REMARK   11  A    between atoms: _21  and  _24
REMARK   12  A    between atoms: _24  and  _25
REMARK   13  A    between atoms: _27  and  _29
REMARK   14  A    between atoms: _29  and  _30
REMARK   15  A    between atoms: _29  and  _32
REMARK   16  A    between atoms: _32  and  _33
REMARK   17  A    between atoms: _38  and  _40
REMARK   18  A    between atoms: _40  and  _41
REMARK   19  A    between atoms: _40  and  _43
REMARK   20  A    between atoms: _43  and  _44
REMARK   21  A    between atoms: _44  and  _45
REMARK   22  A    between atoms: _48  and  _50
REMARK   23  A    between atoms: _50  and  _51
REMARK   24  A    between atoms: _54  and  _56
REMARK   25  A    between atoms: _56  and  _57
REMARK   26  A    between atoms: _56  and  _59
REMARK   27  A    between atoms: _59  and  _60
REMARK   28  A    between atoms: _60  and  _61
REMARK   29  A    between atoms: _64  and  _66
REMARK   30  A    between atoms: _66  and  _67
REMARK   31  A    between atoms: _66  and  _69
REMARK   32  A    between atoms: _69  and  _70
REMARK   33  A    between atoms: _70  and  _71
REMARK   34  A    between atoms: _71  and  _72
REMARK   35  A    between atoms: _72  and  _73
REMARK   36  A    between atoms: _77  and  _79
REMARK   37  A    between atoms: _79  and  _80
REMARK   38  A    between atoms: _79  and  _82
REMARK   39  A    between atoms: _82  and  _83
REMARK   40  A    between atoms: _88  and  _89
REMARK   41  A    between atoms: _91  and  _93
REMARK   42  A    between atoms: _93  and  _94
REMARK   43  A    between atoms: _93  and  _96
REMARK   44  A    between atoms: _96  and  _97
REMARK   45  A    between atoms: _102  and  _104
REMARK   46  A    between atoms: _104  and  _105
REMARK   47  A    between atoms: _104  and  _107
REMARK   48  A    between atoms: _111  and  _112
REMARK   49  A    between atoms: _117  and  _119
REMARK   50  A    between atoms: _119  and  _120
REMARK   51  A    between atoms: _119  and  _122
REMARK   52  A    between atoms: _122  and  _123
REMARK   53  A    between atoms: _129  and  _131
REMARK   54  A    between atoms: _131  and  _132
REMARK   55  A    between atoms: _134  and  _136
REMARK   56  A    between atoms: _136  and  _137
REMARK   57  A    between atoms: _136  and  _139
REMARK   58  A    between atoms: _139  and  _140
REMARK   59  A    between atoms: _140  and  _141
REMARK   60  A    between atoms: _144  and  _146
REMARK   61  A    between atoms: _146  and  _147
REMARK   62  A    between atoms: _150  and  _152
REMARK   63  A    between atoms: _152  and  _153
REMARK   64  A    between atoms: _152  and  _155
REMARK   65  A    between atoms: _155  and  _156
REMARK   66  A    between atoms: _161  and  _163
REMARK   67  A    between atoms: _163  and  _164
REMARK   68  A    between atoms: _167  and  _169
REMARK   69  A    between atoms: _169  and  _170
REMARK   70  A    between atoms: _169  and  _172
REMARK   71  A    between atoms: _172  and  _173
REMARK   72  A    between atoms: _173  and  _174
REMARK   73  A    between atoms: _174  and  _175
REMARK   74  A    between atoms: _175  and  _176
REMARK   75  A    between atoms: _180  and  _182
REMARK   76  A    between atoms: _182  and  _183
REMARK   77  A    between atoms: _182  and  _185
REMARK   78  A    between atoms: _185  and  _186
REMARK   79  A    between atoms: _186  and  _187
REMARK   80  A    between atoms: _187  and  _188
REMARK   81  A    between atoms: _188  and  _189
REMARK   82  A    between atoms: _193  and  _195
REMARK   83  A    between atoms: _195  and  _196
REMARK   84  A    between atoms: _195  and  _198
REMARK   85  A    between atoms: _198  and  _199
REMARK   86  A    between atoms: _199  and  _200
REMARK   87  A    between atoms: _200  and  _201
REMARK   88  A    between atoms: _210  and  _212
REMARK   89  A    between atoms: _212  and  _213
REMARK   90  A    between atoms: _212  and  _215
REMARK   91  A    between atoms: _215  and  _216
REMARK   92  A    between atoms: _216  and  _217
REMARK   93  A    between atoms: _220  and  _222
REMARK   94  A    between atoms: _222  and  _223
REMARK   95  A    between atoms: _222  and  _225
REMARK   96  A    between atoms: _228  and  _230
REMARK   97  A    between atoms: _230  and  _231
REMARK   98  A    between atoms: _234  and  _236
REMARK   99  A    between atoms: _236  and  _237
REMARK  100  A    between atoms: _236  and  _239
REMARK  101  A    between atoms: _239  and  _240
REMARK  102  A    between atoms: _250  and  _252
REMARK  103  A    between atoms: _252  and  _253
REMARK  104  A    between atoms: _252  and  _255
REMARK  105  A    between atoms: _258  and  _260
REMARK  106  A    between atoms: _260  and  _261
REMARK  107  A    between atoms: _260  and  _263
REMARK  108  A    between atoms: _263  and  _264
REMARK  109  A    between atoms: _267  and  _269
REMARK  110  A    between atoms: _269  and  _270
REMARK  111  A    between atoms: _269  and  _272
REMARK  112  A    between atoms: _272  and  _273
REMARK  113  A    between atoms: _279  and  _281
REMARK  114  A    between atoms: _281  and  _282
REMARK  115  A    between atoms: _281  and  _284
REMARK  116  A    between atoms: _284  and  _285
REMARK  117  A    between atoms: _285  and  _286
REMARK  118  A    between atoms: _291  and  _293
REMARK  119  A    between atoms: _293  and  _294
REMARK  120  A    between atoms: _293  and  _296
REMARK  121  A    between atoms: _299  and  _301
REMARK  122  A    between atoms: _301  and  _302
REMARK  123  A    between atoms: _301  and  _304
REMARK  124  A    between atoms: _304  and  _305
REMARK  125  A    between atoms: _308  and  _310
REMARK  126  A    between atoms: _310  and  _311
REMARK  127  A    between atoms: _310  and  _313
REMARK  128  A    between atoms: _313  and  _314
REMARK  129  A    between atoms: _317  and  _319
REMARK  130  A    between atoms: _319  and  _320
REMARK  131  A    between atoms: _319  and  _322
REMARK  132  A    between atoms: _322  and  _323
REMARK  133  A    between atoms: _326  and  _328
REMARK  134  A    between atoms: _328  and  _329
REMARK  135  A    between atoms: _328  and  _331
REMARK  136  A    between atoms: _331  and  _332
REMARK  137  A    between atoms: _335  and  _337
REMARK  138  A    between atoms: _337  and  _338
REMARK  139  A    between atoms: _337  and  _340
REMARK  140  A    between atoms: _340  and  _341
REMARK  141  A    between atoms: _341  and  _342
REMARK  142  A    between atoms: _342  and  _343
REMARK  143  A    between atoms: _352  and  _354
REMARK  144  A    between atoms: _354  and  _355
REMARK  145  A    between atoms: _354  and  _357
REMARK  146  A    between atoms: _357  and  _358
REMARK  147  A    between atoms: _361  and  _363
REMARK  148  A    between atoms: _363  and  _364
REMARK  149  A    between atoms: _363  and  _366
REMARK  150  A    between atoms: _366  and  _367
REMARK  151  A    between atoms: _371  and  _372
REMARK  152  A    between atoms: _377  and  _379
REMARK  153  A    between atoms: _379  and  _380
REMARK  154  A    between atoms: _379  and  _382
REMARK  155  A    between atoms: _382  and  _383
REMARK  156  A    between atoms: _388  and  _389
REMARK  157  A    between atoms: _391  and  _393
REMARK  158  A    between atoms: _393  and  _394
REMARK  159  A    between atoms: _393  and  _396
REMARK  160  A    between atoms: _396  and  _397
REMARK  161  A    between atoms: _407  and  _409
REMARK  162  A    between atoms: _409  and  _410
REMARK  163  A    between atoms: _409  and  _412
REMARK  164  A    between atoms: _412  and  _413
REMARK  165  A    between atoms: _419  and  _421
REMARK  166  A    between atoms: _421  and  _422
REMARK  167  A    between atoms: _421  and  _424
REMARK  168  A    between atoms: _424  and  _425
REMARK  169  A    between atoms: _428  and  _430
REMARK  170  A    between atoms: _430  and  _431
REMARK  171  A    between atoms: _430  and  _433
REMARK  172  A    between atoms: _433  and  _434
REMARK  173  A    between atoms: _444  and  _446
REMARK  174  A    between atoms: _446  and  _447
REMARK  175  A    between atoms: _446  and  _449
REMARK  176  A    between atoms: _449  and  _450
REMARK  177  A    between atoms: _450  and  _451
REMARK  178  A    between atoms: _453  and  _455
REMARK  179  A    between atoms: _455  and  _456
REMARK  180  A    between atoms: _455  and  _458
REMARK  181  A    between atoms: _458  and  _459
REMARK  182  A    between atoms: _464  and  _466
REMARK  183  A    between atoms: _466  and  _467
REMARK  184  A    between atoms: _470  and  _471
REMARK  185  A    between atoms: _476  and  _478
REMARK  186  A    between atoms: _478  and  _479
REMARK  187  A    between atoms: _478  and  _481
REMARK  188  A    between atoms: _481  and  _482
REMARK  189  A    between atoms: _492  and  _494
REMARK  190  A    between atoms: _494  and  _495
REMARK  191  A    between atoms: _499  and  _500
REMARK  192  A    between atoms: _505  and  _507
REMARK  193  A    between atoms: _507  and  _508
REMARK  194  A    between atoms: _507  and  _510
REMARK  195  A    between atoms: _510  and  _511
REMARK  196  A    between atoms: _511  and  _512
REMARK  197  A    between atoms: _517  and  _519
REMARK  198  A    between atoms: _519  and  _520
REMARK  199  A    between atoms: _522  and  _524
REMARK  200  A    between atoms: _524  and  _525
REMARK  201  A    between atoms: _527  and  _529
REMARK  202  A    between atoms: _529  and  _530
REMARK  203  A    between atoms: _529  and  _532
REMARK  204  A    between atoms: _532  and  _533
REMARK  205  A    between atoms: _543  and  _545
REMARK  206  A    between atoms: _545  and  _546
REMARK  207  A    between atoms: _545  and  _548
REMARK  208  A    between atoms: _548  and  _549
REMARK  209  A    between atoms: _552  and  _554
REMARK  210  A    between atoms: _554  and  _555
REMARK  211  A    between atoms: _554  and  _557
REMARK  212  A    between atoms: _557  and  _558
REMARK  213  A    between atoms: _561  and  _563
REMARK  214  A    between atoms: _563  and  _564
REMARK  215  A    between atoms: _563  and  _566
REMARK  216  A    between atoms: _566  and  _567
REMARK  217  A    between atoms: _567  and  _568
REMARK  218  A    between atoms: _568  and  _569
REMARK  219  A    between atoms: _578  and  _580
REMARK  220  A    between atoms: _580  and  _581
REMARK  221  A    between atoms: _580  and  _583
REMARK  222  A    between atoms: _583  and  _584
REMARK  223  A    between atoms: _594  and  _596
REMARK  224  A    between atoms: _596  and  _597
REMARK  225  A    between atoms: _599  and  _601
REMARK  226  A    between atoms: _601  and  _602
REMARK  227  A    between atoms: _601  and  _604
REMARK  228  A    between atoms: _604  and  _605
REMARK  229  A    between atoms: _610  and  _612
REMARK  230  A    between atoms: _612  and  _613
REMARK  231  A    between atoms: _616  and  _618
REMARK  232  A    between atoms: _618  and  _619
REMARK  233  A    between atoms: _618  and  _621
REMARK  234  A    between atoms: _621  and  _622
REMARK  235  A    between atoms: _625  and  _627
REMARK  236  A    between atoms: _627  and  _628
REMARK  237  A    between atoms: _627  and  _630
REMARK  238  A    between atoms: _630  and  _631
REMARK  239  A    between atoms: _637  and  _639
REMARK  240  A    between atoms: _639  and  _640
REMARK  241  A    between atoms: _639  and  _642
REMARK  242  A    between atoms: _642  and  _643
REMARK  243  A    between atoms: _643  and  _644
REMARK  244  A    between atoms: _647  and  _649
REMARK  245  A    between atoms: _649  and  _650
REMARK  246  A    between atoms: _649  and  _652
REMARK  247  A    between atoms: _652  and  _653
REMARK  248  A    between atoms: _653  and  _654
REMARK  249  A    between atoms: _654  and  _655
REMARK                            x       y       z     vdW  Elec       q    Type
REMARK                         _______ _______ _______ _____ _____    ______ ____
ROOT
ATOM      1  O   HOH     1       0.056   1.356  19.763  0.00  0.00    +0.000 OA
ENDROOT
TORSDOF 0
REMARK  Name = ../refined-set-2016/3jzj/3jzj_pocket.pdb
REMARK  249 active torsions:
REMARK  status: ('A' for Active; 'I' for Inactive)
REMARK    1  A    between atoms: _1  and  _3
REMARK    2  A    between atoms: _3  and  _4
REMARK    3  A    between atoms: _3  and  _6
REMARK    4  A    between atoms: _6  and  _7
REMARK    5  A    between atoms: _10  and  _12
REMARK    6  A    between atoms: _12  and  _13
REMARK    7  A    between atoms: _12  and  _15
REMARK    8  A    between atoms: _15  and  _16
REMARK    9  A    between atoms: _19  and  _21
REMARK   10  A    between atoms: _21  and  _22
REMARK   11  A    between atoms: _21  and  _24
REMARK   12  A    between atoms: _24  and  _25
REMARK   13  A    between atoms: _27  and  _29
REMARK   14  A    between atoms: _29  and  _30
REMARK   15  A    between atoms: _29  and  _32
REMARK   16  A    between atoms: _32  and  _33
REMARK   17  A    between atoms: _38  and  _40
REMARK   18  A    between atoms: _40  and  _41
REMARK   19  A    between atoms: _40  and  _43
REMARK   20  A    between atoms: _43  and  _44
REMARK   21  A    between atoms: _44  and  _45
REMARK   22  A    between atoms: _48  and  _50
REMARK   23  A    between atoms: _50  and  _51
REMARK   24  A    between atoms: _54  and  _56
REMARK   25  A    between atoms: _56  and  _57
REMARK   26  A    between atoms: _56  and  _59
REMARK   27  A    between atoms: _59  and  _60
REMARK   28  A    between atoms: _60  and  _61
REMARK   29  A    between atoms: _64  and  _66
REMARK   30  A    between atoms: _66  and  _67
REMARK   31  A    between atoms: _66  and  _69
REMARK   32  A    between atoms: _69  and  _70
REMARK   33  A    between atoms: _70  and  _71
REMARK   34  A    between atoms: _71  and  _72
REMARK   35  A    between atoms: _72  and  _73
REMARK   36  A    between atoms: _77  and  _79
REMARK   37  A    between atoms: _79  and  _80
REMARK   38  A    between atoms: _79  and  _82
REMARK   39  A    between atoms: _82  and  _83
REMARK   40  A    between atoms: _88  and  _89
REMARK   41  A    between atoms: _91  and  _93
REMARK   42  A    between atoms: _93  and  _94
REMARK   43  A    between atoms: _93  and  _96
REMARK   44  A    between atoms: _96  and  _97
REMARK   45  A    between atoms: _102  and  _104
REMARK   46  A    between atoms: _104  and  _105
REMARK   47  A    between atoms: _104  and  _107
REMARK   48  A    between atoms: _111  and  _112
REMARK   49  A    between atoms: _117  and  _119
REMARK   50  A    between atoms: _119  and  _120
REMARK   51  A    between atoms: _119  and  _122
REMARK   52  A    between atoms: _122  and  _123
REMARK   53  A    between atoms: _129  and  _131
REMARK   54  A    between atoms: _131  and  _132
REMARK   55  A    between atoms: _134  and  _136
REMARK   56  A    between atoms: _136  and  _137
REMARK   57  A    between atoms: _136  and  _139
REMARK   58  A    between atoms: _139  and  _140
REMARK   59  A    between atoms: _140  and  _141
REMARK   60  A    between atoms: _144  and  _146
REMARK   61  A    between atoms: _146  and  _147
REMARK   62  A    between atoms: _150  and  _152
REMARK   63  A    between atoms: _152  and  _153
REMARK   64  A    between atoms: _152  and  _155
REMARK   65  A    between atoms: _155  and  _156
REMARK   66  A    between atoms: _161  and  _163
REMARK   67  A    between atoms: _163  and  _164
REMARK   68  A    between atoms: _167  and  _169
REMARK   69  A    between atoms: _169  and  _170
REMARK   70  A    between atoms: _169  and  _172
REMARK   71  A    between atoms: _172  and  _173
REMARK   72  A    between atoms: _173  and  _174
REMARK   73  A    between atoms: _174  and  _175
REMARK   74  A    between atoms: _175  and  _176
REMARK   75  A    between atoms: _180  and  _182
REMARK   76  A    between atoms: _182  and  _183
REMARK   77  A    between atoms: _182  and  _185
REMARK   78  A    between atoms: _185  and  _186
REMARK   79  A    between atoms: _186  and  _187
REMARK   80  A    between atoms: _187  and  _188
REMARK   81  A    between atoms: _188  and  _189
REMARK   82  A    between atoms: _193  and  _195
REMARK   83  A    between atoms: _195  and  _196
REMARK   84  A    between atoms: _195  and  _198
REMARK   85  A    between atoms: _198  and  _199
REMARK   86  A    between atoms: _199  and  _200
REMARK   87  A    between atoms: _200  and  _201
REMARK   88  A    between atoms: _210  and  _212
REMARK   89  A    between atoms: _212  and  _213
REMARK   90  A    between atoms: _212  and  _215
REMARK   91  A    between atoms: _215  and  _216
REMARK   92  A    between atoms: _216  and  _217
REMARK   93  A    between atoms: _220  and  _222
REMARK   94  A    between atoms: _222  and  _223
REMARK   95  A    between atoms: _222  and  _225
REMARK   96  A    between atoms: _228  and  _230
REMARK   97  A    between atoms: _230  and  _231
REMARK   98  A    between atoms: _234  and  _236
REMARK   99  A    between atoms: _236  and  _237
REMARK  100  A    between atoms: _236  and  _239
REMARK  101  A    between atoms: _239  and  _240
REMARK  102  A    between atoms: _250  and  _252
REMARK  103  A    between atoms: _252  and  _253
REMARK  104  A    between atoms: _252  and  _255
REMARK  105  A    between atoms: _258  and  _260
REMARK  106  A    between atoms: _260  and  _261
REMARK  107  A    between atoms: _260  and  _263
REMARK  108  A    between atoms: _263  and  _264
REMARK  109  A    between atoms: _267  and  _269
REMARK  110  A    between atoms: _269  and  _270
REMARK  111  A    between atoms: _269  and  _272
REMARK  112  A    between atoms: _272  and  _273
REMARK  113  A    between atoms: _279  and  _281
REMARK  114  A    between atoms: _281  and  _282
REMARK  115  A    between atoms: _281  and  _284
REMARK  116  A    between atoms: _284  and  _285
REMARK  117  A    between atoms: _285  and  _286
REMARK  118  A    between atoms: _291  and  _293
REMARK  119  A    between atoms: _293  and  _294
REMARK  120  A    between atoms: _293  and  _296
REMARK  121  A    between atoms: _299  and  _301
REMARK  122  A    between atoms: _301  and  _302
REMARK  123  A    between atoms: _301  and  _304
REMARK  124  A    between atoms: _304  and  _305
REMARK  125  A    between atoms: _308  and  _310
REMARK  126  A    between atoms: _310  and  _311
REMARK  127  A    between atoms: _310  and  _313
REMARK  128  A    between atoms: _313  and  _314
REMARK  129  A    between atoms: _317  and  _319
REMARK  130  A    between atoms: _319  and  _320
REMARK  131  A    between atoms: _319  and  _322
REMARK  132  A    between atoms: _322  and  _323
REMARK  133  A    between atoms: _326  and  _328
REMARK  134  A    between atoms: _328  and  _329
REMARK  135  A    between atoms: _328  and  _331
REMARK  136  A    between atoms: _331  and  _332
REMARK  137  A    between atoms: _335  and  _337
REMARK  138  A    between atoms: _337  and  _338
REMARK  139  A    between atoms: _337  and  _340
REMARK  140  A    between atoms: _340  and  _341
REMARK  141  A    between atoms: _341  and  _342
REMARK  142  A    between atoms: _342  and  _343
REMARK  143  A    between atoms: _352  and  _354
REMARK  144  A    between atoms: _354  and  _355
REMARK  145  A    between atoms: _354  and  _357
REMARK  146  A    between atoms: _357  and  _358
REMARK  147  A    between atoms: _361  and  _363
REMARK  148  A    between atoms: _363  and  _364
REMARK  149  A    between atoms: _363  and  _366
REMARK  150  A    between atoms: _366  and  _367
REMARK  151  A    between atoms: _371  and  _372
REMARK  152  A    between atoms: _377  and  _379
REMARK  153  A    between atoms: _379  and  _380
REMARK  154  A    between atoms: _379  and  _382
REMARK  155  A    between atoms: _382  and  _383
REMARK  156  A    between atoms: _388  and  _389
REMARK  157  A    between atoms: _391  and  _393
REMARK  158  A    between atoms: _393  and  _394
REMARK  159  A    between atoms: _393  and  _396
REMARK  160  A    between atoms: _396  and  _397
REMARK  161  A    between atoms: _407  and  _409
REMARK  162  A    between atoms: _409  and  _410
REMARK  163  A    between atoms: _409  and  _412
REMARK  164  A    between atoms: _412  and  _413
REMARK  165  A    between atoms: _419  and  _421
REMARK  166  A    between atoms: _421  and  _422
REMARK  167  A    between atoms: _421  and  _424
REMARK  168  A    between atoms: _424  and  _425
REMARK  169  A    between atoms: _428  and  _430
REMARK  170  A    between atoms: _430  and  _431
REMARK  171  A    between atoms: _430  and  _433
REMARK  172  A    between atoms: _433  and  _434
REMARK  173  A    between atoms: _444  and  _446
REMARK  174  A    between atoms: _446  and  _447
REMARK  175  A    between atoms: _446  and  _449
REMARK  176  A    between atoms: _449  and  _450
REMARK  177  A    between atoms: _450  and  _451
REMARK  178  A    between atoms: _453  and  _455
REMARK  179  A    between atoms: _455  and  _456
REMARK  180  A    between atoms: _455  and  _458
REMARK  181  A    between atoms: _458  and  _459
REMARK  182  A    between atoms: _464  and  _466
REMARK  183  A    between atoms: _466  and  _467
REMARK  184  A    between atoms: _470  and  _471
REMARK  185  A    between atoms: _476  and  _478
REMARK  186  A    between atoms: _478  and  _479
REMARK  187  A    between atoms: _478  and  _481
REMARK  188  A    between atoms: _481  and  _482
REMARK  189  A    between atoms: _492  and  _494
REMARK  190  A    between atoms: _494  and  _495
REMARK  191  A    between atoms: _499  and  _500
REMARK  192  A    between atoms: _505  and  _507
REMARK  193  A    between atoms: _507  and  _508
REMARK  194  A    between atoms: _507  and  _510
REMARK  195  A    between atoms: _510  and  _511
REMARK  196  A    between atoms: _511  and  _512
REMARK  197  A    between atoms: _517  and  _519
REMARK  198  A    between atoms: _519  and  _520
REMARK  199  A    between atoms: _522  and  _524
REMARK  200  A    between atoms: _524  and  _525
REMARK  201  A    between atoms: _527  and  _529
REMARK  202  A    between atoms: _529  and  _530
REMARK  203  A    between atoms: _529  and  _532
REMARK  204  A    between atoms: _532  and  _533
REMARK  205  A    between atoms: _543  and  _545
REMARK  206  A    between atoms: _545  and  _546
REMARK  207  A    between atoms: _545  and  _548
REMARK  208  A    between atoms: _548  and  _549
REMARK  209  A    between atoms: _552  and  _554
REMARK  210  A    between atoms: _554  and  _555
REMARK  211  A    between atoms: _554  and  _557
REMARK  212  A    between atoms: _557  and  _558
REMARK  213  A    between atoms: _561  and  _563
REMARK  214  A    between atoms: _563  and  _564
REMARK  215  A    between atoms: _563  and  _566
REMARK  216  A    between atoms: _566  and  _567
REMARK  217  A    between atoms: _567  and  _568
REMARK  218  A    between atoms: _568  and  _569
REMARK  219  A    between atoms: _578  and  _580
REMARK  220  A    between atoms: _580  and  _581
REMARK  221  A    between atoms: _580  and  _583
REMARK  222  A    between atoms: _583  and  _584
REMARK  223  A    between atoms: _594  and  _596
REMARK  224  A    between atoms: _596  and  _597
REMARK  225  A    between atoms: _599  and  _601
REMARK  226  A    between atoms: _601  and  _602
REMARK  227  A    between atoms: _601  and  _604
REMARK  228  A    between atoms: _604  and  _605
REMARK  229  A    between atoms: _610  and  _612
REMARK  230  A    between atoms: _612  and  _613
REMARK  231  A    between atoms: _616  and  _618
REMARK  232  A    between atoms: _618  and  _619
REMARK  233  A    between atoms: _618  and  _621
REMARK  234  A    between atoms: _621  and  _622
REMARK  235  A    between atoms: _625  and  _627
REMARK  236  A    between atoms: _627  and  _628
REMARK  237  A    between atoms: _627  and  _630
REMARK  238  A    between atoms: _630  and  _631
REMARK  239  A    between atoms: _637  and  _639
REMARK  240  A    between atoms: _639  and  _640
REMARK  241  A    between atoms: _639  and  _642
REMARK  242  A    between atoms: _642  and  _643
REMARK  243  A    between atoms: _643  and  _644
REMARK  244  A    between atoms: _647  and  _649
REMARK  245  A    between atoms: _649  and  _650
REMARK  246  A    between atoms: _649  and  _652
REMARK  247  A    between atoms: _652  and  _653
REMARK  248  A    between atoms: _653  and  _654
REMARK  249  A    between atoms: _654  and  _655
REMARK                            x       y       z     vdW  Elec       q    Type
REMARK                         _______ _______ _______ _____ _____    ______ ____
ROOT
ATOM      1  O   HOH     1      -9.681  -7.864  13.093  0.00  0.00    +0.000 OA
ENDROOT
TORSDOF 0
REMARK  Name = ../refined-set-2016/3jzj/3jzj_pocket.pdb
REMARK  249 active torsions:
REMARK  status: ('A' for Active; 'I' for Inactive)
REMARK    1  A    between atoms: _1  and  _3
REMARK    2  A    between atoms: _3  and  _4
REMARK    3  A    between atoms: _3  and  _6
REMARK    4  A    between atoms: _6  and  _7
REMARK    5  A    between atoms: _10  and  _12
REMARK    6  A    between atoms: _12  and  _13
REMARK    7  A    between atoms: _12  and  _15
REMARK    8  A    between atoms: _15  and  _16
REMARK    9  A    between atoms: _19  and  _21
REMARK   10  A    between atoms: _21  and  _22
REMARK   11  A    between atoms: _21  and  _24
REMARK   12  A    between atoms: _24  and  _25
REMARK   13  A    between atoms: _27  and  _29
REMARK   14  A    between atoms: _29  and  _30
REMARK   15  A    between atoms: _29  and  _32
REMARK   16  A    between atoms: _32  and  _33
REMARK   17  A    between atoms: _38  and  _40
REMARK   18  A    between atoms: _40  and  _41
REMARK   19  A    between atoms: _40  and  _43
REMARK   20  A    between atoms: _43  and  _44
REMARK   21  A    between atoms: _44  and  _45
REMARK   22  A    between atoms: _48  and  _50
REMARK   23  A    between atoms: _50  and  _51
REMARK   24  A    between atoms: _54  and  _56
REMARK   25  A    between atoms: _56  and  _57
REMARK   26  A    between atoms: _56  and  _59
REMARK   27  A    between atoms: _59  and  _60
REMARK   28  A    between atoms: _60  and  _61
REMARK   29  A    between atoms: _64  and  _66
REMARK   30  A    between atoms: _66  and  _67
REMARK   31  A    between atoms: _66  and  _69
REMARK   32  A    between atoms: _69  and  _70
REMARK   33  A    between atoms: _70  and  _71
REMARK   34  A    between atoms: _71  and  _72
REMARK   35  A    between atoms: _72  and  _73
REMARK   36  A    between atoms: _77  and  _79
REMARK   37  A    between atoms: _79  and  _80
REMARK   38  A    between atoms: _79  and  _82
REMARK   39  A    between atoms: _82  and  _83
REMARK   40  A    between atoms: _88  and  _89
REMARK   41  A    between atoms: _91  and  _93
REMARK   42  A    between atoms: _93  and  _94
REMARK   43  A    between atoms: _93  and  _96
REMARK   44  A    between atoms: _96  and  _97
REMARK   45  A    between atoms: _102  and  _104
REMARK   46  A    between atoms: _104  and  _105
REMARK   47  A    between atoms: _104  and  _107
REMARK   48  A    between atoms: _111  and  _112
REMARK   49  A    between atoms: _117  and  _119
REMARK   50  A    between atoms: _119  and  _120
REMARK   51  A    between atoms: _119  and  _122
REMARK   52  A    between atoms: _122  and  _123
REMARK   53  A    between atoms: _129  and  _131
REMARK   54  A    between atoms: _131  and  _132
REMARK   55  A    between atoms: _134  and  _136
REMARK   56  A    between atoms: _136  and  _137
REMARK   57  A    between atoms: _136  and  _139
REMARK   58  A    between atoms: _139  and  _140
REMARK   59  A    between atoms: _140  and  _141
REMARK   60  A    between atoms: _144  and  _146
REMARK   61  A    between atoms: _146  and  _147
REMARK   62  A    between atoms: _150  and  _152
REMARK   63  A    between atoms: _152  and  _153
REMARK   64  A    between atoms: _152  and  _155
REMARK   65  A    between atoms: _155  and  _156
REMARK   66  A    between atoms: _161  and  _163
REMARK   67  A    between atoms: _163  and  _164
REMARK   68  A    between atoms: _167  and  _169
REMARK   69  A    between atoms: _169  and  _170
REMARK   70  A    between atoms: _169  and  _172
REMARK   71  A    between atoms: _172  and  _173
REMARK   72  A    between atoms: _173  and  _174
REMARK   73  A    between atoms: _174  and  _175
REMARK   74  A    between atoms: _175  and  _176
REMARK   75  A    between atoms: _180  and  _182
REMARK   76  A    between atoms: _182  and  _183
REMARK   77  A    between atoms: _182  and  _185
REMARK   78  A    between atoms: _185  and  _186
REMARK   79  A    between atoms: _186  and  _187
REMARK   80  A    between atoms: _187  and  _188
REMARK   81  A    between atoms: _188  and  _189
REMARK   82  A    between atoms: _193  and  _195
REMARK   83  A    between atoms: _195  and  _196
REMARK   84  A    between atoms: _195  and  _198
REMARK   85  A    between atoms: _198  and  _199
REMARK   86  A    between atoms: _199  and  _200
REMARK   87  A    between atoms: _200  and  _201
REMARK   88  A    between atoms: _210  and  _212
REMARK   89  A    between atoms: _212  and  _213
REMARK   90  A    between atoms: _212  and  _215
REMARK   91  A    between atoms: _215  and  _216
REMARK   92  A    between atoms: _216  and  _217
REMARK   93  A    between atoms: _220  and  _222
REMARK   94  A    between atoms: _222  and  _223
REMARK   95  A    between atoms: _222  and  _225
REMARK   96  A    between atoms: _228  and  _230
REMARK   97  A    between atoms: _230  and  _231
REMARK   98  A    between atoms: _234  and  _236
REMARK   99  A    between atoms: _236  and  _237
REMARK  100  A    between atoms: _236  and  _239
REMARK  101  A    between atoms: _239  and  _240
REMARK  102  A    between atoms: _250  and  _252
REMARK  103  A    between atoms: _252  and  _253
REMARK  104  A    between atoms: _252  and  _255
REMARK  105  A    between atoms: _258  and  _260
REMARK  106  A    between atoms: _260  and  _261
REMARK  107  A    between atoms: _260  and  _263
REMARK  108  A    between atoms: _263  and  _264
REMARK  109  A    between atoms: _267  and  _269
REMARK  110  A    between atoms: _269  and  _270
REMARK  111  A    between atoms: _269  and  _272
REMARK  112  A    between atoms: _272  and  _273
REMARK  113  A    between atoms: _279  and  _281
REMARK  114  A    between atoms: _281  and  _282
REMARK  115  A    between atoms: _281  and  _284
REMARK  116  A    between atoms: _284  and  _285
REMARK  117  A    between atoms: _285  and  _286
REMARK  118  A    between atoms: _291  and  _293
REMARK  119  A    between atoms: _293  and  _294
REMARK  120  A    between atoms: _293  and  _296
REMARK  121  A    between atoms: _299  and  _301
REMARK  122  A    between atoms: _301  and  _302
REMARK  123  A    between atoms: _301  and  _304
REMARK  124  A    between atoms: _304  and  _305
REMARK  125  A    between atoms: _308  and  _310
REMARK  126  A    between atoms: _310  and  _311
REMARK  127  A    between atoms: _310  and  _313
REMARK  128  A    between atoms: _313  and  _314
REMARK  129  A    between atoms: _317  and  _319
REMARK  130  A    between atoms: _319  and  _320
REMARK  131  A    between atoms: _319  and  _322
REMARK  132  A    between atoms: _322  and  _323
REMARK  133  A    between atoms: _326  and  _328
REMARK  134  A    between atoms: _328  and  _329
REMARK  135  A    between atoms: _328  and  _331
REMARK  136  A    between atoms: _331  and  _332
REMARK  137  A    between atoms: _335  and  _337
REMARK  138  A    between atoms: _337  and  _338
REMARK  139  A    between atoms: _337  and  _340
REMARK  140  A    between atoms: _340  and  _341
REMARK  141  A    between atoms: _341  and  _342
REMARK  142  A    between atoms: _342  and  _343
REMARK  143  A    between atoms: _352  and  _354
REMARK  144  A    between atoms: _354  and  _355
REMARK  145  A    between atoms: _354  and  _357
REMARK  146  A    between atoms: _357  and  _358
REMARK  147  A    between atoms: _361  and  _363
REMARK  148  A    between atoms: _363  and  _364
REMARK  149  A    between atoms: _363  and  _366
REMARK  150  A    between atoms: _366  and  _367
REMARK  151  A    between atoms: _371  and  _372
REMARK  152  A    between atoms: _377  and  _379
REMARK  153  A    between atoms: _379  and  _380
REMARK  154  A    between atoms: _379  and  _382
REMARK  155  A    between atoms: _382  and  _383
REMARK  156  A    between atoms: _388  and  _389
REMARK  157  A    between atoms: _391  and  _393
REMARK  158  A    between atoms: _393  and  _394
REMARK  159  A    between atoms: _393  and  _396
REMARK  160  A    between atoms: _396  and  _397
REMARK  161  A    between atoms: _407  and  _409
REMARK  162  A    between atoms: _409  and  _410
REMARK  163  A    between atoms: _409  and  _412
REMARK  164  A    between atoms: _412  and  _413
REMARK  165  A    between atoms: _419  and  _421
REMARK  166  A    between atoms: _421  and  _422
REMARK  167  A    between atoms: _421  and  _424
REMARK  168  A    between atoms: _424  and  _425
REMARK  169  A    between atoms: _428  and  _430
REMARK  170  A    between atoms: _430  and  _431
REMARK  171  A    between atoms: _430  and  _433
REMARK  172  A    between atoms: _433  and  _434
REMARK  173  A    between atoms: _444  and  _446
REMARK  174  A    between atoms: _446  and  _447
REMARK  175  A    between atoms: _446  and  _449
REMARK  176  A    between atoms: _449  and  _450
REMARK  177  A    between atoms: _450  and  _451
REMARK  178  A    between atoms: _453  and  _455
REMARK  179  A    between atoms: _455  and  _456
REMARK  180  A    between atoms: _455  and  _458
REMARK  181  A    between atoms: _458  and  _459
REMARK  182  A    between atoms: _464  and  _466
REMARK  183  A    between atoms: _466  and  _467
REMARK  184  A    between atoms: _470  and  _471
REMARK  185  A    between atoms: _476  and  _478
REMARK  186  A    between atoms: _478  and  _479
REMARK  187  A    between atoms: _478  and  _481
REMARK  188  A    between atoms: _481  and  _482
REMARK  189  A    between atoms: _492  and  _494
REMARK  190  A    between atoms: _494  and  _495
REMARK  191  A    between atoms: _499  and  _500
REMARK  192  A    between atoms: _505  and  _507
REMARK  193  A    between atoms: _507  and  _508
REMARK  194  A    between atoms: _507  and  _510
REMARK  195  A    between atoms: _510  and  _511
REMARK  196  A    between atoms: _511  and  _512
REMARK  197  A    between atoms: _517  and  _519
REMARK  198  A    between atoms: _519  and  _520
REMARK  199  A    between atoms: _522  and  _524
REMARK  200  A    between atoms: _524  and  _525
REMARK  201  A    between atoms: _527  and  _529
REMARK  202  A    between atoms: _529  and  _530
REMARK  203  A    between atoms: _529  and  _532
REMARK  204  A    between atoms: _532  and  _533
REMARK  205  A    between atoms: _543  and  _545
REMARK  206  A    between atoms: _545  and  _546
REMARK  207  A    between atoms: _545  and  _548
REMARK  208  A    between atoms: _548  and  _549
REMARK  209  A    between atoms: _552  and  _554
REMARK  210  A    between atoms: _554  and  _555
REMARK  211  A    between atoms: _554  and  _557
REMARK  212  A    between atoms: _557  and  _558
REMARK  213  A    between atoms: _561  and  _563
REMARK  214  A    between atoms: _563  and  _564
REMARK  215  A    between atoms: _563  and  _566
REMARK  216  A    between atoms: _566  and  _567
REMARK  217  A    between atoms: _567  and  _568
REMARK  218  A    between atoms: _568  and  _569
REMARK  219  A    between atoms: _578  and  _580
REMARK  220  A    between atoms: _580  and  _581
REMARK  221  A    between atoms: _580  and  _583
REMARK  222  A    between atoms: _583  and  _584
REMARK  223  A    between atoms: _594  and  _596
REMARK  224  A    between atoms: _596  and  _597
REMARK  225  A    between atoms: _599  and  _601
REMARK  226  A    between atoms: _601  and  _602
REMARK  227  A    between atoms: _601  and  _604
REMARK  228  A    between atoms: _604  and  _605
REMARK  229  A    between atoms: _610  and  _612
REMARK  230  A    between atoms: _612  and  _613
REMARK  231  A    between atoms: _616  and  _618
REMARK  232  A    between atoms: _618  and  _619
REMARK  233  A    between atoms: _618  and  _621
REMARK  234  A    between atoms: _621  and  _622
REMARK  235  A    between atoms: _625  and  _627
REMARK  236  A    between atoms: _627  and  _628
REMARK  237  A    between atoms: _627  and  _630
REMARK  238  A    between atoms: _630  and  _631
REMARK  239  A    between atoms: _637  and  _639
REMARK  240  A    between atoms: _639  and  _640
REMARK  241  A    between atoms: _639  and  _642
REMARK  242  A    between atoms: _642  and  _643
REMARK  243  A    between atoms: _643  and  _644
REMARK  244  A    between atoms: _647  and  _649
REMARK  245  A    between atoms: _649  and  _650
REMARK  246  A    between atoms: _649  and  _652
REMARK  247  A    between atoms: _652  and  _653
REMARK  248  A    between atoms: _653  and  _654
REMARK  249  A    between atoms: _654  and  _655
REMARK                            x       y       z     vdW  Elec       q    Type
REMARK                         _______ _______ _______ _____ _____    ______ ____
ROOT
ATOM      1  O   HOH     1      -9.117  -0.451  11.186  0.00  0.00    +0.000 OA
ENDROOT
TORSDOF 0
REMARK  Name = ../refined-set-2016/3jzj/3jzj_pocket.pdb
REMARK  249 active torsions:
REMARK  status: ('A' for Active; 'I' for Inactive)
REMARK    1  A    between atoms: _1  and  _3
REMARK    2  A    between atoms: _3  and  _4
REMARK    3  A    between atoms: _3  and  _6
REMARK    4  A    between atoms: _6  and  _7
REMARK    5  A    between atoms: _10  and  _12
REMARK    6  A    between atoms: _12  and  _13
REMARK    7  A    between atoms: _12  and  _15
REMARK    8  A    between atoms: _15  and  _16
REMARK    9  A    between atoms: _19  and  _21
REMARK   10  A    between atoms: _21  and  _22
REMARK   11  A    between atoms: _21  and  _24
REMARK   12  A    between atoms: _24  and  _25
REMARK   13  A    between atoms: _27  and  _29
REMARK   14  A    between atoms: _29  and  _30
REMARK   15  A    between atoms: _29  and  _32
REMARK   16  A    between atoms: _32  and  _33
REMARK   17  A    between atoms: _38  and  _40
REMARK   18  A    between atoms: _40  and  _41
REMARK   19  A    between atoms: _40  and  _43
REMARK   20  A    between atoms: _43  and  _44
REMARK   21  A    between atoms: _44  and  _45
REMARK   22  A    between atoms: _48  and  _50
REMARK   23  A    between atoms: _50  and  _51
REMARK   24  A    between atoms: _54  and  _56
REMARK   25  A    between atoms: _56  and  _57
REMARK   26  A    between atoms: _56  and  _59
REMARK   27  A    between atoms: _59  and  _60
REMARK   28  A    between atoms: _60  and  _61
REMARK   29  A    between atoms: _64  and  _66
REMARK   30  A    between atoms: _66  and  _67
REMARK   31  A    between atoms: _66  and  _69
REMARK   32  A    between atoms: _69  and  _70
REMARK   33  A    between atoms: _70  and  _71
REMARK   34  A    between atoms: _71  and  _72
REMARK   35  A    between atoms: _72  and  _73
REMARK   36  A    between atoms: _77  and  _79
REMARK   37  A    between atoms: _79  and  _80
REMARK   38  A    between atoms: _79  and  _82
REMARK   39  A    between atoms: _82  and  _83
REMARK   40  A    between atoms: _88  and  _89
REMARK   41  A    between atoms: _91  and  _93
REMARK   42  A    between atoms: _93  and  _94
REMARK   43  A    between atoms: _93  and  _96
REMARK   44  A    between atoms: _96  and  _97
REMARK   45  A    between atoms: _102  and  _104
REMARK   46  A    between atoms: _104  and  _105
REMARK   47  A    between atoms: _104  and  _107
REMARK   48  A    between atoms: _111  and  _112
REMARK   49  A    between atoms: _117  and  _119
REMARK   50  A    between atoms: _119  and  _120
REMARK   51  A    between atoms: _119  and  _122
REMARK   52  A    between atoms: _122  and  _123
REMARK   53  A    between atoms: _129  and  _131
REMARK   54  A    between atoms: _131  and  _132
REMARK   55  A    between atoms: _134  and  _136
REMARK   56  A    between atoms: _136  and  _137
REMARK   57  A    between atoms: _136  and  _139
REMARK   58  A    between atoms: _139  and  _140
REMARK   59  A    between atoms: _140  and  _141
REMARK   60  A    between atoms: _144  and  _146
REMARK   61  A    between atoms: _146  and  _147
REMARK   62  A    between atoms: _150  and  _152
REMARK   63  A    between atoms: _152  and  _153
REMARK   64  A    between atoms: _152  and  _155
REMARK   65  A    between atoms: _155  and  _156
REMARK   66  A    between atoms: _161  and  _163
REMARK   67  A    between atoms: _163  and  _164
REMARK   68  A    between atoms: _167  and  _169
REMARK   69  A    between atoms: _169  and  _170
REMARK   70  A    between atoms: _169  and  _172
REMARK   71  A    between atoms: _172  and  _173
REMARK   72  A    between atoms: _173  and  _174
REMARK   73  A    between atoms: _174  and  _175
REMARK   74  A    between atoms: _175  and  _176
REMARK   75  A    between atoms: _180  and  _182
REMARK   76  A    between atoms: _182  and  _183
REMARK   77  A    between atoms: _182  and  _185
REMARK   78  A    between atoms: _185  and  _186
REMARK   79  A    between atoms: _186  and  _187
REMARK   80  A    between atoms: _187  and  _188
REMARK   81  A    between atoms: _188  and  _189
REMARK   82  A    between atoms: _193  and  _195
REMARK   83  A    between atoms: _195  and  _196
REMARK   84  A    between atoms: _195  and  _198
REMARK   85  A    between atoms: _198  and  _199
REMARK   86  A    between atoms: _199  and  _200
REMARK   87  A    between atoms: _200  and  _201
REMARK   88  A    between atoms: _210  and  _212
REMARK   89  A    between atoms: _212  and  _213
REMARK   90  A    between atoms: _212  and  _215
REMARK   91  A    between atoms: _215  and  _216
REMARK   92  A    between atoms: _216  and  _217
REMARK   93  A    between atoms: _220  and  _222
REMARK   94  A    between atoms: _222  and  _223
REMARK   95  A    between atoms: _222  and  _225
REMARK   96  A    between atoms: _228  and  _230
REMARK   97  A    between atoms: _230  and  _231
REMARK   98  A    between atoms: _234  and  _236
REMARK   99  A    between atoms: _236  and  _237
REMARK  100  A    between atoms: _236  and  _239
REMARK  101  A    between atoms: _239  and  _240
REMARK  102  A    between atoms: _250  and  _252
REMARK  103  A    between atoms: _252  and  _253
REMARK  104  A    between atoms: _252  and  _255
REMARK  105  A    between atoms: _258  and  _260
REMARK  106  A    between atoms: _260  and  _261
REMARK  107  A    between atoms: _260  and  _263
REMARK  108  A    between atoms: _263  and  _264
REMARK  109  A    between atoms: _267  and  _269
REMARK  110  A    between atoms: _269  and  _270
REMARK  111  A    between atoms: _269  and  _272
REMARK  112  A    between atoms: _272  and  _273
REMARK  113  A    between atoms: _279  and  _281
REMARK  114  A    between atoms: _281  and  _282
REMARK  115  A    between atoms: _281  and  _284
REMARK  116  A    between atoms: _284  and  _285
REMARK  117  A    between atoms: _285  and  _286
REMARK  118  A    between atoms: _291  and  _293
REMARK  119  A    between atoms: _293  and  _294
REMARK  120  A    between atoms: _293  and  _296
REMARK  121  A    between atoms: _299  and  _301
REMARK  122  A    between atoms: _301  and  _302
REMARK  123  A    between atoms: _301  and  _304
REMARK  124  A    between atoms: _304  and  _305
REMARK  125  A    between atoms: _308  and  _310
REMARK  126  A    between atoms: _310  and  _311
REMARK  127  A    between atoms: _310  and  _313
REMARK  128  A    between atoms: _313  and  _314
REMARK  129  A    between atoms: _317  and  _319
REMARK  130  A    between atoms: _319  and  _320
REMARK  131  A    between atoms: _319  and  _322
REMARK  132  A    between atoms: _322  and  _323
REMARK  133  A    between atoms: _326  and  _328
REMARK  134  A    between atoms: _328  and  _329
REMARK  135  A    between atoms: _328  and  _331
REMARK  136  A    between atoms: _331  and  _332
REMARK  137  A    between atoms: _335  and  _337
REMARK  138  A    between atoms: _337  and  _338
REMARK  139  A    between atoms: _337  and  _340
REMARK  140  A    between atoms: _340  and  _341
REMARK  141  A    between atoms: _341  and  _342
REMARK  142  A    between atoms: _342  and  _343
REMARK  143  A    between atoms: _352  and  _354
REMARK  144  A    between atoms: _354  and  _355
REMARK  145  A    between atoms: _354  and  _357
REMARK  146  A    between atoms: _357  and  _358
REMARK  147  A    between atoms: _361  and  _363
REMARK  148  A    between atoms: _363  and  _364
REMARK  149  A    between atoms: _363  and  _366
REMARK  150  A    between atoms: _366  and  _367
REMARK  151  A    between atoms: _371  and  _372
REMARK  152  A    between atoms: _377  and  _379
REMARK  153  A    between atoms: _379  and  _380
REMARK  154  A    between atoms: _379  and  _382
REMARK  155  A    between atoms: _382  and  _383
REMARK  156  A    between atoms: _388  and  _389
REMARK  157  A    between atoms: _391  and  _393
REMARK  158  A    between atoms: _393  and  _394
REMARK  159  A    between atoms: _393  and  _396
REMARK  160  A    between atoms: _396  and  _397
REMARK  161  A    between atoms: _407  and  _409
REMARK  162  A    between atoms: _409  and  _410
REMARK  163  A    between atoms: _409  and  _412
REMARK  164  A    between atoms: _412  and  _413
REMARK  165  A    between atoms: _419  and  _421
REMARK  166  A    between atoms: _421  and  _422
REMARK  167  A    between atoms: _421  and  _424
REMARK  168  A    between atoms: _424  and  _425
REMARK  169  A    between atoms: _428  and  _430
REMARK  170  A    between atoms: _430  and  _431
REMARK  171  A    between atoms: _430  and  _433
REMARK  172  A    between atoms: _433  and  _434
REMARK  173  A    between atoms: _444  and  _446
REMARK  174  A    between atoms: _446  and  _447
REMARK  175  A    between atoms: _446  and  _449
REMARK  176  A    between atoms: _449  and  _450
REMARK  177  A    between atoms: _450  and  _451
REMARK  178  A    between atoms: _453  and  _455
REMARK  179  A    between atoms: _455  and  _456
REMARK  180  A    between atoms: _455  and  _458
REMARK  181  A    between atoms: _458  and  _459
REMARK  182  A    between atoms: _464  and  _466
REMARK  183  A    between atoms: _466  and  _467
REMARK  184  A    between atoms: _470  and  _471
REMARK  185  A    between atoms: _476  and  _478
REMARK  186  A    between atoms: _478  and  _479
REMARK  187  A    between atoms: _478  and  _481
REMARK  188  A    between atoms: _481  and  _482
REMARK  189  A    between atoms: _492  and  _494
REMARK  190  A    between atoms: _494  and  _495
REMARK  191  A    between atoms: _499  and  _500
REMARK  192  A    between atoms: _505  and  _507
REMARK  193  A    between atoms: _507  and  _508
REMARK  194  A    between atoms: _507  and  _510
REMARK  195  A    between atoms: _510  and  _511
REMARK  196  A    between atoms: _511  and  _512
REMARK  197  A    between atoms: _517  and  _519
REMARK  198  A    between atoms: _519  and  _520
REMARK  199  A    between atoms: _522  and  _524
REMARK  200  A    between atoms: _524  and  _525
REMARK  201  A    between atoms: _527  and  _529
REMARK  202  A    between atoms: _529  and  _530
REMARK  203  A    between atoms: _529  and  _532
REMARK  204  A    between atoms: _532  and  _533
REMARK  205  A    between atoms: _543  and  _545
REMARK  206  A    between atoms: _545  and  _546
REMARK  207  A    between atoms: _545  and  _548
REMARK  208  A    between atoms: _548  and  _549
REMARK  209  A    between atoms: _552  and  _554
REMARK  210  A    between atoms: _554  and  _555
REMARK  211  A    between atoms: _554  and  _557
REMARK  212  A    between atoms: _557  and  _558
REMARK  213  A    between atoms: _561  and  _563
REMARK  214  A    between atoms: _563  and  _564
REMARK  215  A    between atoms: _563  and  _566
REMARK  216  A    between atoms: _566  and  _567
REMARK  217  A    between atoms: _567  and  _568
REMARK  218  A    between atoms: _568  and  _569
REMARK  219  A    between atoms: _578  and  _580
REMARK  220  A    between atoms: _580  and  _581
REMARK  221  A    between atoms: _580  and  _583
REMARK  222  A    between atoms: _583  and  _584
REMARK  223  A    between atoms: _594  and  _596
REMARK  224  A    between atoms: _596  and  _597
REMARK  225  A    between atoms: _599  and  _601
REMARK  226  A    between atoms: _601  and  _602
REMARK  227  A    between atoms: _601  and  _604
REMARK  228  A    between atoms: _604  and  _605
REMARK  229  A    between atoms: _610  and  _612
REMARK  230  A    between atoms: _612  and  _613
REMARK  231  A    between atoms: _616  and  _618
REMARK  232  A    between atoms: _618  and  _619
REMARK  233  A    between atoms: _618  and  _621
REMARK  234  A    between atoms: _621  and  _622
REMARK  235  A    between atoms: _625  and  _627
REMARK  236  A    between atoms: _627  and  _628
REMARK  237  A    between atoms: _627  and  _630
REMARK  238  A    between atoms: _630  and  _631
REMARK  239  A    between atoms: _637  and  _639
REMARK  240  A    between atoms: _639  and  _640
REMARK  241  A    between atoms: _639  and  _642
REMARK  242  A    between atoms: _642  and  _643
REMARK  243  A    between atoms: _643  and  _644
REMARK  244  A    between atoms: _647  and  _649
REMARK  245  A    between atoms: _649  and  _650
REMARK  246  A    between atoms: _649  and  _652
REMARK  247  A    between atoms: _652  and  _653
REMARK  248  A    between atoms: _653  and  _654
REMARK  249  A    between atoms: _654  and  _655
REMARK                            x       y       z     vdW  Elec       q    Type
REMARK                         _______ _______ _______ _____ _____    ______ ____
ROOT
ATOM      1  O   HOH     1      -6.265  -4.024   9.080  0.00  0.00    +0.000 OA
ENDROOT
TORSDOF 0
REMARK  Name = ../refined-set-2016/3jzj/3jzj_pocket.pdb
REMARK  249 active torsions:
REMARK  status: ('A' for Active; 'I' for Inactive)
REMARK    1  A    between atoms: _1  and  _3
REMARK    2  A    between atoms: _3  and  _4
REMARK    3  A    between atoms: _3  and  _6
REMARK    4  A    between atoms: _6  and  _7
REMARK    5  A    between atoms: _10  and  _12
REMARK    6  A    between atoms: _12  and  _13
REMARK    7  A    between atoms: _12  and  _15
REMARK    8  A    between atoms: _15  and  _16
REMARK    9  A    between atoms: _19  and  _21
REMARK   10  A    between atoms: _21  and  _22
REMARK   11  A    between atoms: _21  and  _24
REMARK   12  A    between atoms: _24  and  _25
REMARK   13  A    between atoms: _27  and  _29
REMARK   14  A    between atoms: _29  and  _30
REMARK   15  A    between atoms: _29  and  _32
REMARK   16  A    between atoms: _32  and  _33
REMARK   17  A    between atoms: _38  and  _40
REMARK   18  A    between atoms: _40  and  _41
REMARK   19  A    between atoms: _40  and  _43
REMARK   20  A    between atoms: _43  and  _44
REMARK   21  A    between atoms: _44  and  _45
REMARK   22  A    between atoms: _48  and  _50
REMARK   23  A    between atoms: _50  and  _51
REMARK   24  A    between atoms: _54  and  _56
REMARK   25  A    between atoms: _56  and  _57
REMARK   26  A    between atoms: _56  and  _59
REMARK   27  A    between atoms: _59  and  _60
REMARK   28  A    between atoms: _60  and  _61
REMARK   29  A    between atoms: _64  and  _66
REMARK   30  A    between atoms: _66  and  _67
REMARK   31  A    between atoms: _66  and  _69
REMARK   32  A    between atoms: _69  and  _70
REMARK   33  A    between atoms: _70  and  _71
REMARK   34  A    between atoms: _71  and  _72
REMARK   35  A    between atoms: _72  and  _73
REMARK   36  A    between atoms: _77  and  _79
REMARK   37  A    between atoms: _79  and  _80
REMARK   38  A    between atoms: _79  and  _82
REMARK   39  A    between atoms: _82  and  _83
REMARK   40  A    between atoms: _88  and  _89
REMARK   41  A    between atoms: _91  and  _93
REMARK   42  A    between atoms: _93  and  _94
REMARK   43  A    between atoms: _93  and  _96
REMARK   44  A    between atoms: _96  and  _97
REMARK   45  A    between atoms: _102  and  _104
REMARK   46  A    between atoms: _104  and  _105
REMARK   47  A    between atoms: _104  and  _107
REMARK   48  A    between atoms: _111  and  _112
REMARK   49  A    between atoms: _117  and  _119
REMARK   50  A    between atoms: _119  and  _120
REMARK   51  A    between atoms: _119  and  _122
REMARK   52  A    between atoms: _122  and  _123
REMARK   53  A    between atoms: _129  and  _131
REMARK   54  A    between atoms: _131  and  _132
REMARK   55  A    between atoms: _134  and  _136
REMARK   56  A    between atoms: _136  and  _137
REMARK   57  A    between atoms: _136  and  _139
REMARK   58  A    between atoms: _139  and  _140
REMARK   59  A    between atoms: _140  and  _141
REMARK   60  A    between atoms: _144  and  _146
REMARK   61  A    between atoms: _146  and  _147
REMARK   62  A    between atoms: _150  and  _152
REMARK   63  A    between atoms: _152  and  _153
REMARK   64  A    between atoms: _152  and  _155
REMARK   65  A    between atoms: _155  and  _156
REMARK   66  A    between atoms: _161  and  _163
REMARK   67  A    between atoms: _163  and  _164
REMARK   68  A    between atoms: _167  and  _169
REMARK   69  A    between atoms: _169  and  _170
REMARK   70  A    between atoms: _169  and  _172
REMARK   71  A    between atoms: _172  and  _173
REMARK   72  A    between atoms: _173  and  _174
REMARK   73  A    between atoms: _174  and  _175
REMARK   74  A    between atoms: _175  and  _176
REMARK   75  A    between atoms: _180  and  _182
REMARK   76  A    between atoms: _182  and  _183
REMARK   77  A    between atoms: _182  and  _185
REMARK   78  A    between atoms: _185  and  _186
REMARK   79  A    between atoms: _186  and  _187
REMARK   80  A    between atoms: _187  and  _188
REMARK   81  A    between atoms: _188  and  _189
REMARK   82  A    between atoms: _193  and  _195
REMARK   83  A    between atoms: _195  and  _196
REMARK   84  A    between atoms: _195  and  _198
REMARK   85  A    between atoms: _198  and  _199
REMARK   86  A    between atoms: _199  and  _200
REMARK   87  A    between atoms: _200  and  _201
REMARK   88  A    between atoms: _210  and  _212
REMARK   89  A    between atoms: _212  and  _213
REMARK   90  A    between atoms: _212  and  _215
REMARK   91  A    between atoms: _215  and  _216
REMARK   92  A    between atoms: _216  and  _217
REMARK   93  A    between atoms: _220  and  _222
REMARK   94  A    between atoms: _222  and  _223
REMARK   95  A    between atoms: _222  and  _225
REMARK   96  A    between atoms: _228  and  _230
REMARK   97  A    between atoms: _230  and  _231
REMARK   98  A    between atoms: _234  and  _236
REMARK   99  A    between atoms: _236  and  _237
REMARK  100  A    between atoms: _236  and  _239
REMARK  101  A    between atoms: _239  and  _240
REMARK  102  A    between atoms: _250  and  _252
REMARK  103  A    between atoms: _252  and  _253
REMARK  104  A    between atoms: _252  and  _255
REMARK  105  A    between atoms: _258  and  _260
REMARK  106  A    between atoms: _260  and  _261
REMARK  107  A    between atoms: _260  and  _263
REMARK  108  A    between atoms: _263  and  _264
REMARK  109  A    between atoms: _267  and  _269
REMARK  110  A    between atoms: _269  and  _270
REMARK  111  A    between atoms: _269  and  _272
REMARK  112  A    between atoms: _272  and  _273
REMARK  113  A    between atoms: _279  and  _281
REMARK  114  A    between atoms: _281  and  _282
REMARK  115  A    between atoms: _281  and  _284
REMARK  116  A    between atoms: _284  and  _285
REMARK  117  A    between atoms: _285  and  _286
REMARK  118  A    between atoms: _291  and  _293
REMARK  119  A    between atoms: _293  and  _294
REMARK  120  A    between atoms: _293  and  _296
REMARK  121  A    between atoms: _299  and  _301
REMARK  122  A    between atoms: _301  and  _302
REMARK  123  A    between atoms: _301  and  _304
REMARK  124  A    between atoms: _304  and  _305
REMARK  125  A    between atoms: _308  and  _310
REMARK  126  A    between atoms: _310  and  _311
REMARK  127  A    between atoms: _310  and  _313
REMARK  128  A    between atoms: _313  and  _314
REMARK  129  A    between atoms: _317  and  _319
REMARK  130  A    between atoms: _319  and  _320
REMARK  131  A    between atoms: _319  and  _322
REMARK  132  A    between atoms: _322  and  _323
REMARK  133  A    between atoms: _326  and  _328
REMARK  134  A    between atoms: _328  and  _329
REMARK  135  A    between atoms: _328  and  _331
REMARK  136  A    between atoms: _331  and  _332
REMARK  137  A    between atoms: _335  and  _337
REMARK  138  A    between atoms: _337  and  _338
REMARK  139  A    between atoms: _337  and  _340
REMARK  140  A    between atoms: _340  and  _341
REMARK  141  A    between atoms: _341  and  _342
REMARK  142  A    between atoms: _342  and  _343
REMARK  143  A    between atoms: _352  and  _354
REMARK  144  A    between atoms: _354  and  _355
REMARK  145  A    between atoms: _354  and  _357
REMARK  146  A    between atoms: _357  and  _358
REMARK  147  A    between atoms: _361  and  _363
REMARK  148  A    between atoms: _363  and  _364
REMARK  149  A    between atoms: _363  and  _366
REMARK  150  A    between atoms: _366  and  _367
REMARK  151  A    between atoms: _371  and  _372
REMARK  152  A    between atoms: _377  and  _379
REMARK  153  A    between atoms: _379  and  _380
REMARK  154  A    between atoms: _379  and  _382
REMARK  155  A    between atoms: _382  and  _383
REMARK  156  A    between atoms: _388  and  _389
REMARK  157  A    between atoms: _391  and  _393
REMARK  158  A    between atoms: _393  and  _394
REMARK  159  A    between atoms: _393  and  _396
REMARK  160  A    between atoms: _396  and  _397
REMARK  161  A    between atoms: _407  and  _409
REMARK  162  A    between atoms: _409  and  _410
REMARK  163  A    between atoms: _409  and  _412
REMARK  164  A    between atoms: _412  and  _413
REMARK  165  A    between atoms: _419  and  _421
REMARK  166  A    between atoms: _421  and  _422
REMARK  167  A    between atoms: _421  and  _424
REMARK  168  A    between atoms: _424  and  _425
REMARK  169  A    between atoms: _428  and  _430
REMARK  170  A    between atoms: _430  and  _431
REMARK  171  A    between atoms: _430  and  _433
REMARK  172  A    between atoms: _433  and  _434
REMARK  173  A    between atoms: _444  and  _446
REMARK  174  A    between atoms: _446  and  _447
REMARK  175  A    between atoms: _446  and  _449
REMARK  176  A    between atoms: _449  and  _450
REMARK  177  A    between atoms: _450  and  _451
REMARK  178  A    between atoms: _453  and  _455
REMARK  179  A    between atoms: _455  and  _456
REMARK  180  A    between atoms: _455  and  _458
REMARK  181  A    between atoms: _458  and  _459
REMARK  182  A    between atoms: _464  and  _466
REMARK  183  A    between atoms: _466  and  _467
REMARK  184  A    between atoms: _470  and  _471
REMARK  185  A    between atoms: _476  and  _478
REMARK  186  A    between atoms: _478  and  _479
REMARK  187  A    between atoms: _478  and  _481
REMARK  188  A    between atoms: _481  and  _482
REMARK  189  A    between atoms: _492  and  _494
REMARK  190  A    between atoms: _494  and  _495
REMARK  191  A    between atoms: _499  and  _500
REMARK  192  A    between atoms: _505  and  _507
REMARK  193  A    between atoms: _507  and  _508
REMARK  194  A    between atoms: _507  and  _510
REMARK  195  A    between atoms: _510  and  _511
REMARK  196  A    between atoms: _511  and  _512
REMARK  197  A    between atoms: _517  and  _519
REMARK  198  A    between atoms: _519  and  _520
REMARK  199  A    between atoms: _522  and  _524
REMARK  200  A    between atoms: _524  and  _525
REMARK  201  A    between atoms: _527  and  _529
REMARK  202  A    between atoms: _529  and  _530
REMARK  203  A    between atoms: _529  and  _532
REMARK  204  A    between atoms: _532  and  _533
REMARK  205  A    between atoms: _543  and  _545
REMARK  206  A    between atoms: _545  and  _546
REMARK  207  A    between atoms: _545  and  _548
REMARK  208  A    between atoms: _548  and  _549
REMARK  209  A    between atoms: _552  and  _554
REMARK  210  A    between atoms: _554  and  _555
REMARK  211  A    between atoms: _554  and  _557
REMARK  212  A    between atoms: _557  and  _558
REMARK  213  A    between atoms: _561  and  _563
REMARK  214  A    between atoms: _563  and  _564
REMARK  215  A    between atoms: _563  and  _566
REMARK  216  A    between atoms: _566  and  _567
REMARK  217  A    between atoms: _567  and  _568
REMARK  218  A    between atoms: _568  and  _569
REMARK  219  A    between atoms: _578  and  _580
REMARK  220  A    between atoms: _580  and  _581
REMARK  221  A    between atoms: _580  and  _583
REMARK  222  A    between atoms: _583  and  _584
REMARK  223  A    between atoms: _594  and  _596
REMARK  224  A    between atoms: _596  and  _597
REMARK  225  A    between atoms: _599  and  _601
REMARK  226  A    between atoms: _601  and  _602
REMARK  227  A    between atoms: _601  and  _604
REMARK  228  A    between atoms: _604  and  _605
REMARK  229  A    between atoms: _610  and  _612
REMARK  230  A    between atoms: _612  and  _613
REMARK  231  A    between atoms: _616  and  _618
REMARK  232  A    between atoms: _618  and  _619
REMARK  233  A    between atoms: _618  and  _621
REMARK  234  A    between atoms: _621  and  _622
REMARK  235  A    between atoms: _625  and  _627
REMARK  236  A    between atoms: _627  and  _628
REMARK  237  A    between atoms: _627  and  _630
REMARK  238  A    between atoms: _630  and  _631
REMARK  239  A    between atoms: _637  and  _639
REMARK  240  A    between atoms: _639  and  _640
REMARK  241  A    between atoms: _639  and  _642
REMARK  242  A    between atoms: _642  and  _643
REMARK  243  A    between atoms: _643  and  _644
REMARK  244  A    between atoms: _647  and  _649
REMARK  245  A    between atoms: _649  and  _650
REMARK  246  A    between atoms: _649  and  _652
REMARK  247  A    between atoms: _652  and  _653
REMARK  248  A    between atoms: _653  and  _654
REMARK  249  A    between atoms: _654  and  _655
REMARK                            x       y       z     vdW  Elec       q    Type
REMARK                         _______ _______ _______ _____ _____    ______ ____
ROOT
ATOM      1  O   HOH     1      -6.121  -4.847  11.859  0.00  0.00    +0.000 OA
ENDROOT
TORSDOF 0
REMARK  Name = ../refined-set-2016/3jzj/3jzj_pocket.pdb
REMARK  249 active torsions:
REMARK  status: ('A' for Active; 'I' for Inactive)
REMARK    1  A    between atoms: _1  and  _3
REMARK    2  A    between atoms: _3  and  _4
REMARK    3  A    between atoms: _3  and  _6
REMARK    4  A    between atoms: _6  and  _7
REMARK    5  A    between atoms: _10  and  _12
REMARK    6  A    between atoms: _12  and  _13
REMARK    7  A    between atoms: _12  and  _15
REMARK    8  A    between atoms: _15  and  _16
REMARK    9  A    between atoms: _19  and  _21
REMARK   10  A    between atoms: _21  and  _22
REMARK   11  A    between atoms: _21  and  _24
REMARK   12  A    between atoms: _24  and  _25
REMARK   13  A    between atoms: _27  and  _29
REMARK   14  A    between atoms: _29  and  _30
REMARK   15  A    between atoms: _29  and  _32
REMARK   16  A    between atoms: _32  and  _33
REMARK   17  A    between atoms: _38  and  _40
REMARK   18  A    between atoms: _40  and  _41
REMARK   19  A    between atoms: _40  and  _43
REMARK   20  A    between atoms: _43  and  _44
REMARK   21  A    between atoms: _44  and  _45
REMARK   22  A    between atoms: _48  and  _50
REMARK   23  A    between atoms: _50  and  _51
REMARK   24  A    between atoms: _54  and  _56
REMARK   25  A    between atoms: _56  and  _57
REMARK   26  A    between atoms: _56  and  _59
REMARK   27  A    between atoms: _59  and  _60
REMARK   28  A    between atoms: _60  and  _61
REMARK   29  A    between atoms: _64  and  _66
REMARK   30  A    between atoms: _66  and  _67
REMARK   31  A    between atoms: _66  and  _69
REMARK   32  A    between atoms: _69  and  _70
REMARK   33  A    between atoms: _70  and  _71
REMARK   34  A    between atoms: _71  and  _72
REMARK   35  A    between atoms: _72  and  _73
REMARK   36  A    between atoms: _77  and  _79
REMARK   37  A    between atoms: _79  and  _80
REMARK   38  A    between atoms: _79  and  _82
REMARK   39  A    between atoms: _82  and  _83
REMARK   40  A    between atoms: _88  and  _89
REMARK   41  A    between atoms: _91  and  _93
REMARK   42  A    between atoms: _93  and  _94
REMARK   43  A    between atoms: _93  and  _96
REMARK   44  A    between atoms: _96  and  _97
REMARK   45  A    between atoms: _102  and  _104
REMARK   46  A    between atoms: _104  and  _105
REMARK   47  A    between atoms: _104  and  _107
REMARK   48  A    between atoms: _111  and  _112
REMARK   49  A    between atoms: _117  and  _119
REMARK   50  A    between atoms: _119  and  _120
REMARK   51  A    between atoms: _119  and  _122
REMARK   52  A    between atoms: _122  and  _123
REMARK   53  A    between atoms: _129  and  _131
REMARK   54  A    between atoms: _131  and  _132
REMARK   55  A    between atoms: _134  and  _136
REMARK   56  A    between atoms: _136  and  _137
REMARK   57  A    between atoms: _136  and  _139
REMARK   58  A    between atoms: _139  and  _140
REMARK   59  A    between atoms: _140  and  _141
REMARK   60  A    between atoms: _144  and  _146
REMARK   61  A    between atoms: _146  and  _147
REMARK   62  A    between atoms: _150  and  _152
REMARK   63  A    between atoms: _152  and  _153
REMARK   64  A    between atoms: _152  and  _155
REMARK   65  A    between atoms: _155  and  _156
REMARK   66  A    between atoms: _161  and  _163
REMARK   67  A    between atoms: _163  and  _164
REMARK   68  A    between atoms: _167  and  _169
REMARK   69  A    between atoms: _169  and  _170
REMARK   70  A    between atoms: _169  and  _172
REMARK   71  A    between atoms: _172  and  _173
REMARK   72  A    between atoms: _173  and  _174
REMARK   73  A    between atoms: _174  and  _175
REMARK   74  A    between atoms: _175  and  _176
REMARK   75  A    between atoms: _180  and  _182
REMARK   76  A    between atoms: _182  and  _183
REMARK   77  A    between atoms: _182  and  _185
REMARK   78  A    between atoms: _185  and  _186
REMARK   79  A    between atoms: _186  and  _187
REMARK   80  A    between atoms: _187  and  _188
REMARK   81  A    between atoms: _188  and  _189
REMARK   82  A    between atoms: _193  and  _195
REMARK   83  A    between atoms: _195  and  _196
REMARK   84  A    between atoms: _195  and  _198
REMARK   85  A    between atoms: _198  and  _199
REMARK   86  A    between atoms: _199  and  _200
REMARK   87  A    between atoms: _200  and  _201
REMARK   88  A    between atoms: _210  and  _212
REMARK   89  A    between atoms: _212  and  _213
REMARK   90  A    between atoms: _212  and  _215
REMARK   91  A    between atoms: _215  and  _216
REMARK   92  A    between atoms: _216  and  _217
REMARK   93  A    between atoms: _220  and  _222
REMARK   94  A    between atoms: _222  and  _223
REMARK   95  A    between atoms: _222  and  _225
REMARK   96  A    between atoms: _228  and  _230
REMARK   97  A    between atoms: _230  and  _231
REMARK   98  A    between atoms: _234  and  _236
REMARK   99  A    between atoms: _236  and  _237
REMARK  100  A    between atoms: _236  and  _239
REMARK  101  A    between atoms: _239  and  _240
REMARK  102  A    between atoms: _250  and  _252
REMARK  103  A    between atoms: _252  and  _253
REMARK  104  A    between atoms: _252  and  _255
REMARK  105  A    between atoms: _258  and  _260
REMARK  106  A    between atoms: _260  and  _261
REMARK  107  A    between atoms: _260  and  _263
REMARK  108  A    between atoms: _263  and  _264
REMARK  109  A    between atoms: _267  and  _269
REMARK  110  A    between atoms: _269  and  _270
REMARK  111  A    between atoms: _269  and  _272
REMARK  112  A    between atoms: _272  and  _273
REMARK  113  A    between atoms: _279  and  _281
REMARK  114  A    between atoms: _281  and  _282
REMARK  115  A    between atoms: _281  and  _284
REMARK  116  A    between atoms: _284  and  _285
REMARK  117  A    between atoms: _285  and  _286
REMARK  118  A    between atoms: _291  and  _293
REMARK  119  A    between atoms: _293  and  _294
REMARK  120  A    between atoms: _293  and  _296
REMARK  121  A    between atoms: _299  and  _301
REMARK  122  A    between atoms: _301  and  _302
REMARK  123  A    between atoms: _301  and  _304
REMARK  124  A    between atoms: _304  and  _305
REMARK  125  A    between atoms: _308  and  _310
REMARK  126  A    between atoms: _310  and  _311
REMARK  127  A    between atoms: _310  and  _313
REMARK  128  A    between atoms: _313  and  _314
REMARK  129  A    between atoms: _317  and  _319
REMARK  130  A    between atoms: _319  and  _320
REMARK  131  A    between atoms: _319  and  _322
REMARK  132  A    between atoms: _322  and  _323
REMARK  133  A    between atoms: _326  and  _328
REMARK  134  A    between atoms: _328  and  _329
REMARK  135  A    between atoms: _328  and  _331
REMARK  136  A    between atoms: _331  and  _332
REMARK  137  A    between atoms: _335  and  _337
REMARK  138  A    between atoms: _337  and  _338
REMARK  139  A    between atoms: _337  and  _340
REMARK  140  A    between atoms: _340  and  _341
REMARK  141  A    between atoms: _341  and  _342
REMARK  142  A    between atoms: _342  and  _343
REMARK  143  A    between atoms: _352  and  _354
REMARK  144  A    between atoms: _354  and  _355
REMARK  145  A    between atoms: _354  and  _357
REMARK  146  A    between atoms: _357  and  _358
REMARK  147  A    between atoms: _361  and  _363
REMARK  148  A    between atoms: _363  and  _364
REMARK  149  A    between atoms: _363  and  _366
REMARK  150  A    between atoms: _366  and  _367
REMARK  151  A    between atoms: _371  and  _372
REMARK  152  A    between atoms: _377  and  _379
REMARK  153  A    between atoms: _379  and  _380
REMARK  154  A    between atoms: _379  and  _382
REMARK  155  A    between atoms: _382  and  _383
REMARK  156  A    between atoms: _388  and  _389
REMARK  157  A    between atoms: _391  and  _393
REMARK  158  A    between atoms: _393  and  _394
REMARK  159  A    between atoms: _393  and  _396
REMARK  160  A    between atoms: _396  and  _397
REMARK  161  A    between atoms: _407  and  _409
REMARK  162  A    between atoms: _409  and  _410
REMARK  163  A    between atoms: _409  and  _412
REMARK  164  A    between atoms: _412  and  _413
REMARK  165  A    between atoms: _419  and  _421
REMARK  166  A    between atoms: _421  and  _422
REMARK  167  A    between atoms: _421  and  _424
REMARK  168  A    between atoms: _424  and  _425
REMARK  169  A    between atoms: _428  and  _430
REMARK  170  A    between atoms: _430  and  _431
REMARK  171  A    between atoms: _430  and  _433
REMARK  172  A    between atoms: _433  and  _434
REMARK  173  A    between atoms: _444  and  _446
REMARK  174  A    between atoms: _446  and  _447
REMARK  175  A    between atoms: _446  and  _449
REMARK  176  A    between atoms: _449  and  _450
REMARK  177  A    between atoms: _450  and  _451
REMARK  178  A    between atoms: _453  and  _455
REMARK  179  A    between atoms: _455  and  _456
REMARK  180  A    between atoms: _455  and  _458
REMARK  181  A    between atoms: _458  and  _459
REMARK  182  A    between atoms: _464  and  _466
REMARK  183  A    between atoms: _466  and  _467
REMARK  184  A    between atoms: _470  and  _471
REMARK  185  A    between atoms: _476  and  _478
REMARK  186  A    between atoms: _478  and  _479
REMARK  187  A    between atoms: _478  and  _481
REMARK  188  A    between atoms: _481  and  _482
REMARK  189  A    between atoms: _492  and  _494
REMARK  190  A    between atoms: _494  and  _495
REMARK  191  A    between atoms: _499  and  _500
REMARK  192  A    between atoms: _505  and  _507
REMARK  193  A    between atoms: _507  and  _508
REMARK  194  A    between atoms: _507  and  _510
REMARK  195  A    between atoms: _510  and  _511
REMARK  196  A    between atoms: _511  and  _512
REMARK  197  A    between atoms: _517  and  _519
REMARK  198  A    between atoms: _519  and  _520
REMARK  199  A    between atoms: _522  and  _524
REMARK  200  A    between atoms: _524  and  _525
REMARK  201  A    between atoms: _527  and  _529
REMARK  202  A    between atoms: _529  and  _530
REMARK  203  A    between atoms: _529  and  _532
REMARK  204  A    between atoms: _532  and  _533
REMARK  205  A    between atoms: _543  and  _545
REMARK  206  A    between atoms: _545  and  _546
REMARK  207  A    between atoms: _545  and  _548
REMARK  208  A    between atoms: _548  and  _549
REMARK  209  A    between atoms: _552  and  _554
REMARK  210  A    between atoms: _554  and  _555
REMARK  211  A    between atoms: _554  and  _557
REMARK  212  A    between atoms: _557  and  _558
REMARK  213  A    between atoms: _561  and  _563
REMARK  214  A    between atoms: _563  and  _564
REMARK  215  A    between atoms: _563  and  _566
REMARK  216  A    between atoms: _566  and  _567
REMARK  217  A    between atoms: _567  and  _568
REMARK  218  A    between atoms: _568  and  _569
REMARK  219  A    between atoms: _578  and  _580
REMARK  220  A    between atoms: _580  and  _581
REMARK  221  A    between atoms: _580  and  _583
REMARK  222  A    between atoms: _583  and  _584
REMARK  223  A    between atoms: _594  and  _596
REMARK  224  A    between atoms: _596  and  _597
REMARK  225  A    between atoms: _599  and  _601
REMARK  226  A    between atoms: _601  and  _602
REMARK  227  A    between atoms: _601  and  _604
REMARK  228  A    between atoms: _604  and  _605
REMARK  229  A    between atoms: _610  and  _612
REMARK  230  A    between atoms: _612  and  _613
REMARK  231  A    between atoms: _616  and  _618
REMARK  232  A    between atoms: _618  and  _619
REMARK  233  A    between atoms: _618  and  _621
REMARK  234  A    between atoms: _621  and  _622
REMARK  235  A    between atoms: _625  and  _627
REMARK  236  A    between atoms: _627  and  _628
REMARK  237  A    between atoms: _627  and  _630
REMARK  238  A    between atoms: _630  and  _631
REMARK  239  A    between atoms: _637  and  _639
REMARK  240  A    between atoms: _639  and  _640
REMARK  241  A    between atoms: _639  and  _642
REMARK  242  A    between atoms: _642  and  _643
REMARK  243  A    between atoms: _643  and  _644
REMARK  244  A    between atoms: _647  and  _649
REMARK  245  A    between atoms: _649  and  _650
REMARK  246  A    between atoms: _649  and  _652
REMARK  247  A    between atoms: _652  and  _653
REMARK  248  A    between atoms: _653  and  _654
REMARK  249  A    between atoms: _654  and  _655
REMARK                            x       y       z     vdW  Elec       q    Type
REMARK                         _______ _______ _______ _____ _____    ______ ____
ROOT
ATOM      1  O   HOH     1      -7.379  -3.609  14.070  0.00  0.00    +0.000 OA
ENDROOT
TORSDOF 0
REMARK  Name = ../refined-set-2016/3jzj/3jzj_pocket.pdb
REMARK  249 active torsions:
REMARK  status: ('A' for Active; 'I' for Inactive)
REMARK    1  A    between atoms: _1  and  _3
REMARK    2  A    between atoms: _3  and  _4
REMARK    3  A    between atoms: _3  and  _6
REMARK    4  A    between atoms: _6  and  _7
REMARK    5  A    between atoms: _10  and  _12
REMARK    6  A    between atoms: _12  and  _13
REMARK    7  A    between atoms: _12  and  _15
REMARK    8  A    between atoms: _15  and  _16
REMARK    9  A    between atoms: _19  and  _21
REMARK   10  A    between atoms: _21  and  _22
REMARK   11  A    between atoms: _21  and  _24
REMARK   12  A    between atoms: _24  and  _25
REMARK   13  A    between atoms: _27  and  _29
REMARK   14  A    between atoms: _29  and  _30
REMARK   15  A    between atoms: _29  and  _32
REMARK   16  A    between atoms: _32  and  _33
REMARK   17  A    between atoms: _38  and  _40
REMARK   18  A    between atoms: _40  and  _41
REMARK   19  A    between atoms: _40  and  _43
REMARK   20  A    between atoms: _43  and  _44
REMARK   21  A    between atoms: _44  and  _45
REMARK   22  A    between atoms: _48  and  _50
REMARK   23  A    between atoms: _50  and  _51
REMARK   24  A    between atoms: _54  and  _56
REMARK   25  A    between atoms: _56  and  _57
REMARK   26  A    between atoms: _56  and  _59
REMARK   27  A    between atoms: _59  and  _60
REMARK   28  A    between atoms: _60  and  _61
REMARK   29  A    between atoms: _64  and  _66
REMARK   30  A    between atoms: _66  and  _67
REMARK   31  A    between atoms: _66  and  _69
REMARK   32  A    between atoms: _69  and  _70
REMARK   33  A    between atoms: _70  and  _71
REMARK   34  A    between atoms: _71  and  _72
REMARK   35  A    between atoms: _72  and  _73
REMARK   36  A    between atoms: _77  and  _79
REMARK   37  A    between atoms: _79  and  _80
REMARK   38  A    between atoms: _79  and  _82
REMARK   39  A    between atoms: _82  and  _83
REMARK   40  A    between atoms: _88  and  _89
REMARK   41  A    between atoms: _91  and  _93
REMARK   42  A    between atoms: _93  and  _94
REMARK   43  A    between atoms: _93  and  _96
REMARK   44  A    between atoms: _96  and  _97
REMARK   45  A    between atoms: _102  and  _104
REMARK   46  A    between atoms: _104  and  _105
REMARK   47  A    between atoms: _104  and  _107
REMARK   48  A    between atoms: _111  and  _112
REMARK   49  A    between atoms: _117  and  _119
REMARK   50  A    between atoms: _119  and  _120
REMARK   51  A    between atoms: _119  and  _122
REMARK   52  A    between atoms: _122  and  _123
REMARK   53  A    between atoms: _129  and  _131
REMARK   54  A    between atoms: _131  and  _132
REMARK   55  A    between atoms: _134  and  _136
REMARK   56  A    between atoms: _136  and  _137
REMARK   57  A    between atoms: _136  and  _139
REMARK   58  A    between atoms: _139  and  _140
REMARK   59  A    between atoms: _140  and  _141
REMARK   60  A    between atoms: _144  and  _146
REMARK   61  A    between atoms: _146  and  _147
REMARK   62  A    between atoms: _150  and  _152
REMARK   63  A    between atoms: _152  and  _153
REMARK   64  A    between atoms: _152  and  _155
REMARK   65  A    between atoms: _155  and  _156
REMARK   66  A    between atoms: _161  and  _163
REMARK   67  A    between atoms: _163  and  _164
REMARK   68  A    between atoms: _167  and  _169
REMARK   69  A    between atoms: _169  and  _170
REMARK   70  A    between atoms: _169  and  _172
REMARK   71  A    between atoms: _172  and  _173
REMARK   72  A    between atoms: _173  and  _174
REMARK   73  A    between atoms: _174  and  _175
REMARK   74  A    between atoms: _175  and  _176
REMARK   75  A    between atoms: _180  and  _182
REMARK   76  A    between atoms: _182  and  _183
REMARK   77  A    between atoms: _182  and  _185
REMARK   78  A    between atoms: _185  and  _186
REMARK   79  A    between atoms: _186  and  _187
REMARK   80  A    between atoms: _187  and  _188
REMARK   81  A    between atoms: _188  and  _189
REMARK   82  A    between atoms: _193  and  _195
REMARK   83  A    between atoms: _195  and  _196
REMARK   84  A    between atoms: _195  and  _198
REMARK   85  A    between atoms: _198  and  _199
REMARK   86  A    between atoms: _199  and  _200
REMARK   87  A    between atoms: _200  and  _201
REMARK   88  A    between atoms: _210  and  _212
REMARK   89  A    between atoms: _212  and  _213
REMARK   90  A    between atoms: _212  and  _215
REMARK   91  A    between atoms: _215  and  _216
REMARK   92  A    between atoms: _216  and  _217
REMARK   93  A    between atoms: _220  and  _222
REMARK   94  A    between atoms: _222  and  _223
REMARK   95  A    between atoms: _222  and  _225
REMARK   96  A    between atoms: _228  and  _230
REMARK   97  A    between atoms: _230  and  _231
REMARK   98  A    between atoms: _234  and  _236
REMARK   99  A    between atoms: _236  and  _237
REMARK  100  A    between atoms: _236  and  _239
REMARK  101  A    between atoms: _239  and  _240
REMARK  102  A    between atoms: _250  and  _252
REMARK  103  A    between atoms: _252  and  _253
REMARK  104  A    between atoms: _252  and  _255
REMARK  105  A    between atoms: _258  and  _260
REMARK  106  A    between atoms: _260  and  _261
REMARK  107  A    between atoms: _260  and  _263
REMARK  108  A    between atoms: _263  and  _264
REMARK  109  A    between atoms: _267  and  _269
REMARK  110  A    between atoms: _269  and  _270
REMARK  111  A    between atoms: _269  and  _272
REMARK  112  A    between atoms: _272  and  _273
REMARK  113  A    between atoms: _279  and  _281
REMARK  114  A    between atoms: _281  and  _282
REMARK  115  A    between atoms: _281  and  _284
REMARK  116  A    between atoms: _284  and  _285
REMARK  117  A    between atoms: _285  and  _286
REMARK  118  A    between atoms: _291  and  _293
REMARK  119  A    between atoms: _293  and  _294
REMARK  120  A    between atoms: _293  and  _296
REMARK  121  A    between atoms: _299  and  _301
REMARK  122  A    between atoms: _301  and  _302
REMARK  123  A    between atoms: _301  and  _304
REMARK  124  A    between atoms: _304  and  _305
REMARK  125  A    between atoms: _308  and  _310
REMARK  126  A    between atoms: _310  and  _311
REMARK  127  A    between atoms: _310  and  _313
REMARK  128  A    between atoms: _313  and  _314
REMARK  129  A    between atoms: _317  and  _319
REMARK  130  A    between atoms: _319  and  _320
REMARK  131  A    between atoms: _319  and  _322
REMARK  132  A    between atoms: _322  and  _323
REMARK  133  A    between atoms: _326  and  _328
REMARK  134  A    between atoms: _328  and  _329
REMARK  135  A    between atoms: _328  and  _331
REMARK  136  A    between atoms: _331  and  _332
REMARK  137  A    between atoms: _335  and  _337
REMARK  138  A    between atoms: _337  and  _338
REMARK  139  A    between atoms: _337  and  _340
REMARK  140  A    between atoms: _340  and  _341
REMARK  141  A    between atoms: _341  and  _342
REMARK  142  A    between atoms: _342  and  _343
REMARK  143  A    between atoms: _352  and  _354
REMARK  144  A    between atoms: _354  and  _355
REMARK  145  A    between atoms: _354  and  _357
REMARK  146  A    between atoms: _357  and  _358
REMARK  147  A    between atoms: _361  and  _363
REMARK  148  A    between atoms: _363  and  _364
REMARK  149  A    between atoms: _363  and  _366
REMARK  150  A    between atoms: _366  and  _367
REMARK  151  A    between atoms: _371  and  _372
REMARK  152  A    between atoms: _377  and  _379
REMARK  153  A    between atoms: _379  and  _380
REMARK  154  A    between atoms: _379  and  _382
REMARK  155  A    between atoms: _382  and  _383
REMARK  156  A    between atoms: _388  and  _389
REMARK  157  A    between atoms: _391  and  _393
REMARK  158  A    between atoms: _393  and  _394
REMARK  159  A    between atoms: _393  and  _396
REMARK  160  A    between atoms: _396  and  _397
REMARK  161  A    between atoms: _407  and  _409
REMARK  162  A    between atoms: _409  and  _410
REMARK  163  A    between atoms: _409  and  _412
REMARK  164  A    between atoms: _412  and  _413
REMARK  165  A    between atoms: _419  and  _421
REMARK  166  A    between atoms: _421  and  _422
REMARK  167  A    between atoms: _421  and  _424
REMARK  168  A    between atoms: _424  and  _425
REMARK  169  A    between atoms: _428  and  _430
REMARK  170  A    between atoms: _430  and  _431
REMARK  171  A    between atoms: _430  and  _433
REMARK  172  A    between atoms: _433  and  _434
REMARK  173  A    between atoms: _444  and  _446
REMARK  174  A    between atoms: _446  and  _447
REMARK  175  A    between atoms: _446  and  _449
REMARK  176  A    between atoms: _449  and  _450
REMARK  177  A    between atoms: _450  and  _451
REMARK  178  A    between atoms: _453  and  _455
REMARK  179  A    between atoms: _455  and  _456
REMARK  180  A    between atoms: _455  and  _458
REMARK  181  A    between atoms: _458  and  _459
REMARK  182  A    between atoms: _464  and  _466
REMARK  183  A    between atoms: _466  and  _467
REMARK  184  A    between atoms: _470  and  _471
REMARK  185  A    between atoms: _476  and  _478
REMARK  186  A    between atoms: _478  and  _479
REMARK  187  A    between atoms: _478  and  _481
REMARK  188  A    between atoms: _481  and  _482
REMARK  189  A    between atoms: _492  and  _494
REMARK  190  A    between atoms: _494  and  _495
REMARK  191  A    between atoms: _499  and  _500
REMARK  192  A    between atoms: _505  and  _507
REMARK  193  A    between atoms: _507  and  _508
REMARK  194  A    between atoms: _507  and  _510
REMARK  195  A    between atoms: _510  and  _511
REMARK  196  A    between atoms: _511  and  _512
REMARK  197  A    between atoms: _517  and  _519
REMARK  198  A    between atoms: _519  and  _520
REMARK  199  A    between atoms: _522  and  _524
REMARK  200  A    between atoms: _524  and  _525
REMARK  201  A    between atoms: _527  and  _529
REMARK  202  A    between atoms: _529  and  _530
REMARK  203  A    between atoms: _529  and  _532
REMARK  204  A    between atoms: _532  and  _533
REMARK  205  A    between atoms: _543  and  _545
REMARK  206  A    between atoms: _545  and  _546
REMARK  207  A    between atoms: _545  and  _548
REMARK  208  A    between atoms: _548  and  _549
REMARK  209  A    between atoms: _552  and  _554
REMARK  210  A    between atoms: _554  and  _555
REMARK  211  A    between atoms: _554  and  _557
REMARK  212  A    between atoms: _557  and  _558
REMARK  213  A    between atoms: _561  and  _563
REMARK  214  A    between atoms: _563  and  _564
REMARK  215  A    between atoms: _563  and  _566
REMARK  216  A    between atoms: _566  and  _567
REMARK  217  A    between atoms: _567  and  _568
REMARK  218  A    between atoms: _568  and  _569
REMARK  219  A    between atoms: _578  and  _580
REMARK  220  A    between atoms: _580  and  _581
REMARK  221  A    between atoms: _580  and  _583
REMARK  222  A    between atoms: _583  and  _584
REMARK  223  A    between atoms: _594  and  _596
REMARK  224  A    between atoms: _596  and  _597
REMARK  225  A    between atoms: _599  and  _601
REMARK  226  A    between atoms: _601  and  _602
REMARK  227  A    between atoms: _601  and  _604
REMARK  228  A    between atoms: _604  and  _605
REMARK  229  A    between atoms: _610  and  _612
REMARK  230  A    between atoms: _612  and  _613
REMARK  231  A    between atoms: _616  and  _618
REMARK  232  A    between atoms: _618  and  _619
REMARK  233  A    between atoms: _618  and  _621
REMARK  234  A    between atoms: _621  and  _622
REMARK  235  A    between atoms: _625  and  _627
REMARK  236  A    between atoms: _627  and  _628
REMARK  237  A    between atoms: _627  and  _630
REMARK  238  A    between atoms: _630  and  _631
REMARK  239  A    between atoms: _637  and  _639
REMARK  240  A    between atoms: _639  and  _640
REMARK  241  A    between atoms: _639  and  _642
REMARK  242  A    between atoms: _642  and  _643
REMARK  243  A    between atoms: _643  and  _644
REMARK  244  A    between atoms: _647  and  _649
REMARK  245  A    between atoms: _649  and  _650
REMARK  246  A    between atoms: _649  and  _652
REMARK  247  A    between atoms: _652  and  _653
REMARK  248  A    between atoms: _653  and  _654
REMARK  249  A    between atoms: _654  and  _655
REMARK                            x       y       z     vdW  Elec       q    Type
REMARK                         _______ _______ _______ _____ _____    ______ ____
ROOT
ATOM      1  O   HOH     1      -5.262 -15.835  19.209  0.00  0.00    +0.000 OA
ENDROOT
TORSDOF 0
REMARK  Name = ../refined-set-2016/3jzj/3jzj_pocket.pdb
REMARK  249 active torsions:
REMARK  status: ('A' for Active; 'I' for Inactive)
REMARK    1  A    between atoms: _1  and  _3
REMARK    2  A    between atoms: _3  and  _4
REMARK    3  A    between atoms: _3  and  _6
REMARK    4  A    between atoms: _6  and  _7
REMARK    5  A    between atoms: _10  and  _12
REMARK    6  A    between atoms: _12  and  _13
REMARK    7  A    between atoms: _12  and  _15
REMARK    8  A    between atoms: _15  and  _16
REMARK    9  A    between atoms: _19  and  _21
REMARK   10  A    between atoms: _21  and  _22
REMARK   11  A    between atoms: _21  and  _24
REMARK   12  A    between atoms: _24  and  _25
REMARK   13  A    between atoms: _27  and  _29
REMARK   14  A    between atoms: _29  and  _30
REMARK   15  A    between atoms: _29  and  _32
REMARK   16  A    between atoms: _32  and  _33
REMARK   17  A    between atoms: _38  and  _40
REMARK   18  A    between atoms: _40  and  _41
REMARK   19  A    between atoms: _40  and  _43
REMARK   20  A    between atoms: _43  and  _44
REMARK   21  A    between atoms: _44  and  _45
REMARK   22  A    between atoms: _48  and  _50
REMARK   23  A    between atoms: _50  and  _51
REMARK   24  A    between atoms: _54  and  _56
REMARK   25  A    between atoms: _56  and  _57
REMARK   26  A    between atoms: _56  and  _59
REMARK   27  A    between atoms: _59  and  _60
REMARK   28  A    between atoms: _60  and  _61
REMARK   29  A    between atoms: _64  and  _66
REMARK   30  A    between atoms: _66  and  _67
REMARK   31  A    between atoms: _66  and  _69
REMARK   32  A    between atoms: _69  and  _70
REMARK   33  A    between atoms: _70  and  _71
REMARK   34  A    between atoms: _71  and  _72
REMARK   35  A    between atoms: _72  and  _73
REMARK   36  A    between atoms: _77  and  _79
REMARK   37  A    between atoms: _79  and  _80
REMARK   38  A    between atoms: _79  and  _82
REMARK   39  A    between atoms: _82  and  _83
REMARK   40  A    between atoms: _88  and  _89
REMARK   41  A    between atoms: _91  and  _93
REMARK   42  A    between atoms: _93  and  _94
REMARK   43  A    between atoms: _93  and  _96
REMARK   44  A    between atoms: _96  and  _97
REMARK   45  A    between atoms: _102  and  _104
REMARK   46  A    between atoms: _104  and  _105
REMARK   47  A    between atoms: _104  and  _107
REMARK   48  A    between atoms: _111  and  _112
REMARK   49  A    between atoms: _117  and  _119
REMARK   50  A    between atoms: _119  and  _120
REMARK   51  A    between atoms: _119  and  _122
REMARK   52  A    between atoms: _122  and  _123
REMARK   53  A    between atoms: _129  and  _131
REMARK   54  A    between atoms: _131  and  _132
REMARK   55  A    between atoms: _134  and  _136
REMARK   56  A    between atoms: _136  and  _137
REMARK   57  A    between atoms: _136  and  _139
REMARK   58  A    between atoms: _139  and  _140
REMARK   59  A    between atoms: _140  and  _141
REMARK   60  A    between atoms: _144  and  _146
REMARK   61  A    between atoms: _146  and  _147
REMARK   62  A    between atoms: _150  and  _152
REMARK   63  A    between atoms: _152  and  _153
REMARK   64  A    between atoms: _152  and  _155
REMARK   65  A    between atoms: _155  and  _156
REMARK   66  A    between atoms: _161  and  _163
REMARK   67  A    between atoms: _163  and  _164
REMARK   68  A    between atoms: _167  and  _169
REMARK   69  A    between atoms: _169  and  _170
REMARK   70  A    between atoms: _169  and  _172
REMARK   71  A    between atoms: _172  and  _173
REMARK   72  A    between atoms: _173  and  _174
REMARK   73  A    between atoms: _174  and  _175
REMARK   74  A    between atoms: _175  and  _176
REMARK   75  A    between atoms: _180  and  _182
REMARK   76  A    between atoms: _182  and  _183
REMARK   77  A    between atoms: _182  and  _185
REMARK   78  A    between atoms: _185  and  _186
REMARK   79  A    between atoms: _186  and  _187
REMARK   80  A    between atoms: _187  and  _188
REMARK   81  A    between atoms: _188  and  _189
REMARK   82  A    between atoms: _193  and  _195
REMARK   83  A    between atoms: _195  and  _196
REMARK   84  A    between atoms: _195  and  _198
REMARK   85  A    between atoms: _198  and  _199
REMARK   86  A    between atoms: _199  and  _200
REMARK   87  A    between atoms: _200  and  _201
REMARK   88  A    between atoms: _210  and  _212
REMARK   89  A    between atoms: _212  and  _213
REMARK   90  A    between atoms: _212  and  _215
REMARK   91  A    between atoms: _215  and  _216
REMARK   92  A    between atoms: _216  and  _217
REMARK   93  A    between atoms: _220  and  _222
REMARK   94  A    between atoms: _222  and  _223
REMARK   95  A    between atoms: _222  and  _225
REMARK   96  A    between atoms: _228  and  _230
REMARK   97  A    between atoms: _230  and  _231
REMARK   98  A    between atoms: _234  and  _236
REMARK   99  A    between atoms: _236  and  _237
REMARK  100  A    between atoms: _236  and  _239
REMARK  101  A    between atoms: _239  and  _240
REMARK  102  A    between atoms: _250  and  _252
REMARK  103  A    between atoms: _252  and  _253
REMARK  104  A    between atoms: _252  and  _255
REMARK  105  A    between atoms: _258  and  _260
REMARK  106  A    between atoms: _260  and  _261
REMARK  107  A    between atoms: _260  and  _263
REMARK  108  A    between atoms: _263  and  _264
REMARK  109  A    between atoms: _267  and  _269
REMARK  110  A    between atoms: _269  and  _270
REMARK  111  A    between atoms: _269  and  _272
REMARK  112  A    between atoms: _272  and  _273
REMARK  113  A    between atoms: _279  and  _281
REMARK  114  A    between atoms: _281  and  _282
REMARK  115  A    between atoms: _281  and  _284
REMARK  116  A    between atoms: _284  and  _285
REMARK  117  A    between atoms: _285  and  _286
REMARK  118  A    between atoms: _291  and  _293
REMARK  119  A    between atoms: _293  and  _294
REMARK  120  A    between atoms: _293  and  _296
REMARK  121  A    between atoms: _299  and  _301
REMARK  122  A    between atoms: _301  and  _302
REMARK  123  A    between atoms: _301  and  _304
REMARK  124  A    between atoms: _304  and  _305
REMARK  125  A    between atoms: _308  and  _310
REMARK  126  A    between atoms: _310  and  _311
REMARK  127  A    between atoms: _310  and  _313
REMARK  128  A    between atoms: _313  and  _314
REMARK  129  A    between atoms: _317  and  _319
REMARK  130  A    between atoms: _319  and  _320
REMARK  131  A    between atoms: _319  and  _322
REMARK  132  A    between atoms: _322  and  _323
REMARK  133  A    between atoms: _326  and  _328
REMARK  134  A    between atoms: _328  and  _329
REMARK  135  A    between atoms: _328  and  _331
REMARK  136  A    between atoms: _331  and  _332
REMARK  137  A    between atoms: _335  and  _337
REMARK  138  A    between atoms: _337  and  _338
REMARK  139  A    between atoms: _337  and  _340
REMARK  140  A    between atoms: _340  and  _341
REMARK  141  A    between atoms: _341  and  _342
REMARK  142  A    between atoms: _342  and  _343
REMARK  143  A    between atoms: _352  and  _354
REMARK  144  A    between atoms: _354  and  _355
REMARK  145  A    between atoms: _354  and  _357
REMARK  146  A    between atoms: _357  and  _358
REMARK  147  A    between atoms: _361  and  _363
REMARK  148  A    between atoms: _363  and  _364
REMARK  149  A    between atoms: _363  and  _366
REMARK  150  A    between atoms: _366  and  _367
REMARK  151  A    between atoms: _371  and  _372
REMARK  152  A    between atoms: _377  and  _379
REMARK  153  A    between atoms: _379  and  _380
REMARK  154  A    between atoms: _379  and  _382
REMARK  155  A    between atoms: _382  and  _383
REMARK  156  A    between atoms: _388  and  _389
REMARK  157  A    between atoms: _391  and  _393
REMARK  158  A    between atoms: _393  and  _394
REMARK  159  A    between atoms: _393  and  _396
REMARK  160  A    between atoms: _396  and  _397
REMARK  161  A    between atoms: _407  and  _409
REMARK  162  A    between atoms: _409  and  _410
REMARK  163  A    between atoms: _409  and  _412
REMARK  164  A    between atoms: _412  and  _413
REMARK  165  A    between atoms: _419  and  _421
REMARK  166  A    between atoms: _421  and  _422
REMARK  167  A    between atoms: _421  and  _424
REMARK  168  A    between atoms: _424  and  _425
REMARK  169  A    between atoms: _428  and  _430
REMARK  170  A    between atoms: _430  and  _431
REMARK  171  A    between atoms: _430  and  _433
REMARK  172  A    between atoms: _433  and  _434
REMARK  173  A    between atoms: _444  and  _446
REMARK  174  A    between atoms: _446  and  _447
REMARK  175  A    between atoms: _446  and  _449
REMARK  176  A    between atoms: _449  and  _450
REMARK  177  A    between atoms: _450  and  _451
REMARK  178  A    between atoms: _453  and  _455
REMARK  179  A    between atoms: _455  and  _456
REMARK  180  A    between atoms: _455  and  _458
REMARK  181  A    between atoms: _458  and  _459
REMARK  182  A    between atoms: _464  and  _466
REMARK  183  A    between atoms: _466  and  _467
REMARK  184  A    between atoms: _470  and  _471
REMARK  185  A    between atoms: _476  and  _478
REMARK  186  A    between atoms: _478  and  _479
REMARK  187  A    between atoms: _478  and  _481
REMARK  188  A    between atoms: _481  and  _482
REMARK  189  A    between atoms: _492  and  _494
REMARK  190  A    between atoms: _494  and  _495
REMARK  191  A    between atoms: _499  and  _500
REMARK  192  A    between atoms: _505  and  _507
REMARK  193  A    between atoms: _507  and  _508
REMARK  194  A    between atoms: _507  and  _510
REMARK  195  A    between atoms: _510  and  _511
REMARK  196  A    between atoms: _511  and  _512
REMARK  197  A    between atoms: _517  and  _519
REMARK  198  A    between atoms: _519  and  _520
REMARK  199  A    between atoms: _522  and  _524
REMARK  200  A    between atoms: _524  and  _525
REMARK  201  A    between atoms: _527  and  _529
REMARK  202  A    between atoms: _529  and  _530
REMARK  203  A    between atoms: _529  and  _532
REMARK  204  A    between atoms: _532  and  _533
REMARK  205  A    between atoms: _543  and  _545
REMARK  206  A    between atoms: _545  and  _546
REMARK  207  A    between atoms: _545  and  _548
REMARK  208  A    between atoms: _548  and  _549
REMARK  209  A    between atoms: _552  and  _554
REMARK  210  A    between atoms: _554  and  _555
REMARK  211  A    between atoms: _554  and  _557
REMARK  212  A    between atoms: _557  and  _558
REMARK  213  A    between atoms: _561  and  _563
REMARK  214  A    between atoms: _563  and  _564
REMARK  215  A    between atoms: _563  and  _566
REMARK  216  A    between atoms: _566  and  _567
REMARK  217  A    between atoms: _567  and  _568
REMARK  218  A    between atoms: _568  and  _569
REMARK  219  A    between atoms: _578  and  _580
REMARK  220  A    between atoms: _580  and  _581
REMARK  221  A    between atoms: _580  and  _583
REMARK  222  A    between atoms: _583  and  _584
REMARK  223  A    between atoms: _594  and  _596
REMARK  224  A    between atoms: _596  and  _597
REMARK  225  A    between atoms: _599  and  _601
REMARK  226  A    between atoms: _601  and  _602
REMARK  227  A    between atoms: _601  and  _604
REMARK  228  A    between atoms: _604  and  _605
REMARK  229  A    between atoms: _610  and  _612
REMARK  230  A    between atoms: _612  and  _613
REMARK  231  A    between atoms: _616  and  _618
REMARK  232  A    between atoms: _618  and  _619
REMARK  233  A    between atoms: _618  and  _621
REMARK  234  A    between atoms: _621  and  _622
REMARK  235  A    between atoms: _625  and  _627
REMARK  236  A    between atoms: _627  and  _628
REMARK  237  A    between atoms: _627  and  _630
REMARK  238  A    between atoms: _630  and  _631
REMARK  239  A    between atoms: _637  and  _639
REMARK  240  A    between atoms: _639  and  _640
REMARK  241  A    between atoms: _639  and  _642
REMARK  242  A    between atoms: _642  and  _643
REMARK  243  A    between atoms: _643  and  _644
REMARK  244  A    between atoms: _647  and  _649
REMARK  245  A    between atoms: _649  and  _650
REMARK  246  A    between atoms: _649  and  _652
REMARK  247  A    between atoms: _652  and  _653
REMARK  248  A    between atoms: _653  and  _654
REMARK  249  A    between atoms: _654  and  _655
REMARK                            x       y       z     vdW  Elec       q    Type
REMARK                         _______ _______ _______ _____ _____    ______ ____
ROOT
ATOM      1  O   HOH     1      -9.403  -9.505  17.806  0.00  0.00    +0.000 OA
ENDROOT
TORSDOF 0
REMARK  Name = ../refined-set-2016/3jzj/3jzj_pocket.pdb
REMARK  249 active torsions:
REMARK  status: ('A' for Active; 'I' for Inactive)
REMARK    1  A    between atoms: _1  and  _3
REMARK    2  A    between atoms: _3  and  _4
REMARK    3  A    between atoms: _3  and  _6
REMARK    4  A    between atoms: _6  and  _7
REMARK    5  A    between atoms: _10  and  _12
REMARK    6  A    between atoms: _12  and  _13
REMARK    7  A    between atoms: _12  and  _15
REMARK    8  A    between atoms: _15  and  _16
REMARK    9  A    between atoms: _19  and  _21
REMARK   10  A    between atoms: _21  and  _22
REMARK   11  A    between atoms: _21  and  _24
REMARK   12  A    between atoms: _24  and  _25
REMARK   13  A    between atoms: _27  and  _29
REMARK   14  A    between atoms: _29  and  _30
REMARK   15  A    between atoms: _29  and  _32
REMARK   16  A    between atoms: _32  and  _33
REMARK   17  A    between atoms: _38  and  _40
REMARK   18  A    between atoms: _40  and  _41
REMARK   19  A    between atoms: _40  and  _43
REMARK   20  A    between atoms: _43  and  _44
REMARK   21  A    between atoms: _44  and  _45
REMARK   22  A    between atoms: _48  and  _50
REMARK   23  A    between atoms: _50  and  _51
REMARK   24  A    between atoms: _54  and  _56
REMARK   25  A    between atoms: _56  and  _57
REMARK   26  A    between atoms: _56  and  _59
REMARK   27  A    between atoms: _59  and  _60
REMARK   28  A    between atoms: _60  and  _61
REMARK   29  A    between atoms: _64  and  _66
REMARK   30  A    between atoms: _66  and  _67
REMARK   31  A    between atoms: _66  and  _69
REMARK   32  A    between atoms: _69  and  _70
REMARK   33  A    between atoms: _70  and  _71
REMARK   34  A    between atoms: _71  and  _72
REMARK   35  A    between atoms: _72  and  _73
REMARK   36  A    between atoms: _77  and  _79
REMARK   37  A    between atoms: _79  and  _80
REMARK   38  A    between atoms: _79  and  _82
REMARK   39  A    between atoms: _82  and  _83
REMARK   40  A    between atoms: _88  and  _89
REMARK   41  A    between atoms: _91  and  _93
REMARK   42  A    between atoms: _93  and  _94
REMARK   43  A    between atoms: _93  and  _96
REMARK   44  A    between atoms: _96  and  _97
REMARK   45  A    between atoms: _102  and  _104
REMARK   46  A    between atoms: _104  and  _105
REMARK   47  A    between atoms: _104  and  _107
REMARK   48  A    between atoms: _111  and  _112
REMARK   49  A    between atoms: _117  and  _119
REMARK   50  A    between atoms: _119  and  _120
REMARK   51  A    between atoms: _119  and  _122
REMARK   52  A    between atoms: _122  and  _123
REMARK   53  A    between atoms: _129  and  _131
REMARK   54  A    between atoms: _131  and  _132
REMARK   55  A    between atoms: _134  and  _136
REMARK   56  A    between atoms: _136  and  _137
REMARK   57  A    between atoms: _136  and  _139
REMARK   58  A    between atoms: _139  and  _140
REMARK   59  A    between atoms: _140  and  _141
REMARK   60  A    between atoms: _144  and  _146
REMARK   61  A    between atoms: _146  and  _147
REMARK   62  A    between atoms: _150  and  _152
REMARK   63  A    between atoms: _152  and  _153
REMARK   64  A    between atoms: _152  and  _155
REMARK   65  A    between atoms: _155  and  _156
REMARK   66  A    between atoms: _161  and  _163
REMARK   67  A    between atoms: _163  and  _164
REMARK   68  A    between atoms: _167  and  _169
REMARK   69  A    between atoms: _169  and  _170
REMARK   70  A    between atoms: _169  and  _172
REMARK   71  A    between atoms: _172  and  _173
REMARK   72  A    between atoms: _173  and  _174
REMARK   73  A    between atoms: _174  and  _175
REMARK   74  A    between atoms: _175  and  _176
REMARK   75  A    between atoms: _180  and  _182
REMARK   76  A    between atoms: _182  and  _183
REMARK   77  A    between atoms: _182  and  _185
REMARK   78  A    between atoms: _185  and  _186
REMARK   79  A    between atoms: _186  and  _187
REMARK   80  A    between atoms: _187  and  _188
REMARK   81  A    between atoms: _188  and  _189
REMARK   82  A    between atoms: _193  and  _195
REMARK   83  A    between atoms: _195  and  _196
REMARK   84  A    between atoms: _195  and  _198
REMARK   85  A    between atoms: _198  and  _199
REMARK   86  A    between atoms: _199  and  _200
REMARK   87  A    between atoms: _200  and  _201
REMARK   88  A    between atoms: _210  and  _212
REMARK   89  A    between atoms: _212  and  _213
REMARK   90  A    between atoms: _212  and  _215
REMARK   91  A    between atoms: _215  and  _216
REMARK   92  A    between atoms: _216  and  _217
REMARK   93  A    between atoms: _220  and  _222
REMARK   94  A    between atoms: _222  and  _223
REMARK   95  A    between atoms: _222  and  _225
REMARK   96  A    between atoms: _228  and  _230
REMARK   97  A    between atoms: _230  and  _231
REMARK   98  A    between atoms: _234  and  _236
REMARK   99  A    between atoms: _236  and  _237
REMARK  100  A    between atoms: _236  and  _239
REMARK  101  A    between atoms: _239  and  _240
REMARK  102  A    between atoms: _250  and  _252
REMARK  103  A    between atoms: _252  and  _253
REMARK  104  A    between atoms: _252  and  _255
REMARK  105  A    between atoms: _258  and  _260
REMARK  106  A    between atoms: _260  and  _261
REMARK  107  A    between atoms: _260  and  _263
REMARK  108  A    between atoms: _263  and  _264
REMARK  109  A    between atoms: _267  and  _269
REMARK  110  A    between atoms: _269  and  _270
REMARK  111  A    between atoms: _269  and  _272
REMARK  112  A    between atoms: _272  and  _273
REMARK  113  A    between atoms: _279  and  _281
REMARK  114  A    between atoms: _281  and  _282
REMARK  115  A    between atoms: _281  and  _284
REMARK  116  A    between atoms: _284  and  _285
REMARK  117  A    between atoms: _285  and  _286
REMARK  118  A    between atoms: _291  and  _293
REMARK  119  A    between atoms: _293  and  _294
REMARK  120  A    between atoms: _293  and  _296
REMARK  121  A    between atoms: _299  and  _301
REMARK  122  A    between atoms: _301  and  _302
REMARK  123  A    between atoms: _301  and  _304
REMARK  124  A    between atoms: _304  and  _305
REMARK  125  A    between atoms: _308  and  _310
REMARK  126  A    between atoms: _310  and  _311
REMARK  127  A    between atoms: _310  and  _313
REMARK  128  A    between atoms: _313  and  _314
REMARK  129  A    between atoms: _317  and  _319
REMARK  130  A    between atoms: _319  and  _320
REMARK  131  A    between atoms: _319  and  _322
REMARK  132  A    between atoms: _322  and  _323
REMARK  133  A    between atoms: _326  and  _328
REMARK  134  A    between atoms: _328  and  _329
REMARK  135  A    between atoms: _328  and  _331
REMARK  136  A    between atoms: _331  and  _332
REMARK  137  A    between atoms: _335  and  _337
REMARK  138  A    between atoms: _337  and  _338
REMARK  139  A    between atoms: _337  and  _340
REMARK  140  A    between atoms: _340  and  _341
REMARK  141  A    between atoms: _341  and  _342
REMARK  142  A    between atoms: _342  and  _343
REMARK  143  A    between atoms: _352  and  _354
REMARK  144  A    between atoms: _354  and  _355
REMARK  145  A    between atoms: _354  and  _357
REMARK  146  A    between atoms: _357  and  _358
REMARK  147  A    between atoms: _361  and  _363
REMARK  148  A    between atoms: _363  and  _364
REMARK  149  A    between atoms: _363  and  _366
REMARK  150  A    between atoms: _366  and  _367
REMARK  151  A    between atoms: _371  and  _372
REMARK  152  A    between atoms: _377  and  _379
REMARK  153  A    between atoms: _379  and  _380
REMARK  154  A    between atoms: _379  and  _382
REMARK  155  A    between atoms: _382  and  _383
REMARK  156  A    between atoms: _388  and  _389
REMARK  157  A    between atoms: _391  and  _393
REMARK  158  A    between atoms: _393  and  _394
REMARK  159  A    between atoms: _393  and  _396
REMARK  160  A    between atoms: _396  and  _397
REMARK  161  A    between atoms: _407  and  _409
REMARK  162  A    between atoms: _409  and  _410
REMARK  163  A    between atoms: _409  and  _412
REMARK  164  A    between atoms: _412  and  _413
REMARK  165  A    between atoms: _419  and  _421
REMARK  166  A    between atoms: _421  and  _422
REMARK  167  A    between atoms: _421  and  _424
REMARK  168  A    between atoms: _424  and  _425
REMARK  169  A    between atoms: _428  and  _430
REMARK  170  A    between atoms: _430  and  _431
REMARK  171  A    between atoms: _430  and  _433
REMARK  172  A    between atoms: _433  and  _434
REMARK  173  A    between atoms: _444  and  _446
REMARK  174  A    between atoms: _446  and  _447
REMARK  175  A    between atoms: _446  and  _449
REMARK  176  A    between atoms: _449  and  _450
REMARK  177  A    between atoms: _450  and  _451
REMARK  178  A    between atoms: _453  and  _455
REMARK  179  A    between atoms: _455  and  _456
REMARK  180  A    between atoms: _455  and  _458
REMARK  181  A    between atoms: _458  and  _459
REMARK  182  A    between atoms: _464  and  _466
REMARK  183  A    between atoms: _466  and  _467
REMARK  184  A    between atoms: _470  and  _471
REMARK  185  A    between atoms: _476  and  _478
REMARK  186  A    between atoms: _478  and  _479
REMARK  187  A    between atoms: _478  and  _481
REMARK  188  A    between atoms: _481  and  _482
REMARK  189  A    between atoms: _492  and  _494
REMARK  190  A    between atoms: _494  and  _495
REMARK  191  A    between atoms: _499  and  _500
REMARK  192  A    between atoms: _505  and  _507
REMARK  193  A    between atoms: _507  and  _508
REMARK  194  A    between atoms: _507  and  _510
REMARK  195  A    between atoms: _510  and  _511
REMARK  196  A    between atoms: _511  and  _512
REMARK  197  A    between atoms: _517  and  _519
REMARK  198  A    between atoms: _519  and  _520
REMARK  199  A    between atoms: _522  and  _524
REMARK  200  A    between atoms: _524  and  _525
REMARK  201  A    between atoms: _527  and  _529
REMARK  202  A    between atoms: _529  and  _530
REMARK  203  A    between atoms: _529  and  _532
REMARK  204  A    between atoms: _532  and  _533
REMARK  205  A    between atoms: _543  and  _545
REMARK  206  A    between atoms: _545  and  _546
REMARK  207  A    between atoms: _545  and  _548
REMARK  208  A    between atoms: _548  and  _549
REMARK  209  A    between atoms: _552  and  _554
REMARK  210  A    between atoms: _554  and  _555
REMARK  211  A    between atoms: _554  and  _557
REMARK  212  A    between atoms: _557  and  _558
REMARK  213  A    between atoms: _561  and  _563
REMARK  214  A    between atoms: _563  and  _564
REMARK  215  A    between atoms: _563  and  _566
REMARK  216  A    between atoms: _566  and  _567
REMARK  217  A    between atoms: _567  and  _568
REMARK  218  A    between atoms: _568  and  _569
REMARK  219  A    between atoms: _578  and  _580
REMARK  220  A    between atoms: _580  and  _581
REMARK  221  A    between atoms: _580  and  _583
REMARK  222  A    between atoms: _583  and  _584
REMARK  223  A    between atoms: _594  and  _596
REMARK  224  A    between atoms: _596  and  _597
REMARK  225  A    between atoms: _599  and  _601
REMARK  226  A    between atoms: _601  and  _602
REMARK  227  A    between atoms: _601  and  _604
REMARK  228  A    between atoms: _604  and  _605
REMARK  229  A    between atoms: _610  and  _612
REMARK  230  A    between atoms: _612  and  _613
REMARK  231  A    between atoms: _616  and  _618
REMARK  232  A    between atoms: _618  and  _619
REMARK  233  A    between atoms: _618  and  _621
REMARK  234  A    between atoms: _621  and  _622
REMARK  235  A    between atoms: _625  and  _627
REMARK  236  A    between atoms: _627  and  _628
REMARK  237  A    between atoms: _627  and  _630
REMARK  238  A    between atoms: _630  and  _631
REMARK  239  A    between atoms: _637  and  _639
REMARK  240  A    between atoms: _639  and  _640
REMARK  241  A    between atoms: _639  and  _642
REMARK  242  A    between atoms: _642  and  _643
REMARK  243  A    between atoms: _643  and  _644
REMARK  244  A    between atoms: _647  and  _649
REMARK  245  A    between atoms: _649  and  _650
REMARK  246  A    between atoms: _649  and  _652
REMARK  247  A    between atoms: _652  and  _653
REMARK  248  A    between atoms: _653  and  _654
REMARK  249  A    between atoms: _654  and  _655
REMARK                            x       y       z     vdW  Elec       q    Type
REMARK                         _______ _______ _______ _____ _____    ______ ____
ROOT
ATOM      1  O   HOH     1      -4.685 -18.759  16.522  0.00  0.00    +0.000 OA
ENDROOT
TORSDOF 0
REMARK  Name = ../refined-set-2016/3jzj/3jzj_pocket.pdb
REMARK  249 active torsions:
REMARK  status: ('A' for Active; 'I' for Inactive)
REMARK    1  A    between atoms: _1  and  _3
REMARK    2  A    between atoms: _3  and  _4
REMARK    3  A    between atoms: _3  and  _6
REMARK    4  A    between atoms: _6  and  _7
REMARK    5  A    between atoms: _10  and  _12
REMARK    6  A    between atoms: _12  and  _13
REMARK    7  A    between atoms: _12  and  _15
REMARK    8  A    between atoms: _15  and  _16
REMARK    9  A    between atoms: _19  and  _21
REMARK   10  A    between atoms: _21  and  _22
REMARK   11  A    between atoms: _21  and  _24
REMARK   12  A    between atoms: _24  and  _25
REMARK   13  A    between atoms: _27  and  _29
REMARK   14  A    between atoms: _29  and  _30
REMARK   15  A    between atoms: _29  and  _32
REMARK   16  A    between atoms: _32  and  _33
REMARK   17  A    between atoms: _38  and  _40
REMARK   18  A    between atoms: _40  and  _41
REMARK   19  A    between atoms: _40  and  _43
REMARK   20  A    between atoms: _43  and  _44
REMARK   21  A    between atoms: _44  and  _45
REMARK   22  A    between atoms: _48  and  _50
REMARK   23  A    between atoms: _50  and  _51
REMARK   24  A    between atoms: _54  and  _56
REMARK   25  A    between atoms: _56  and  _57
REMARK   26  A    between atoms: _56  and  _59
REMARK   27  A    between atoms: _59  and  _60
REMARK   28  A    between atoms: _60  and  _61
REMARK   29  A    between atoms: _64  and  _66
REMARK   30  A    between atoms: _66  and  _67
REMARK   31  A    between atoms: _66  and  _69
REMARK   32  A    between atoms: _69  and  _70
REMARK   33  A    between atoms: _70  and  _71
REMARK   34  A    between atoms: _71  and  _72
REMARK   35  A    between atoms: _72  and  _73
REMARK   36  A    between atoms: _77  and  _79
REMARK   37  A    between atoms: _79  and  _80
REMARK   38  A    between atoms: _79  and  _82
REMARK   39  A    between atoms: _82  and  _83
REMARK   40  A    between atoms: _88  and  _89
REMARK   41  A    between atoms: _91  and  _93
REMARK   42  A    between atoms: _93  and  _94
REMARK   43  A    between atoms: _93  and  _96
REMARK   44  A    between atoms: _96  and  _97
REMARK   45  A    between atoms: _102  and  _104
REMARK   46  A    between atoms: _104  and  _105
REMARK   47  A    between atoms: _104  and  _107
REMARK   48  A    between atoms: _111  and  _112
REMARK   49  A    between atoms: _117  and  _119
REMARK   50  A    between atoms: _119  and  _120
REMARK   51  A    between atoms: _119  and  _122
REMARK   52  A    between atoms: _122  and  _123
REMARK   53  A    between atoms: _129  and  _131
REMARK   54  A    between atoms: _131  and  _132
REMARK   55  A    between atoms: _134  and  _136
REMARK   56  A    between atoms: _136  and  _137
REMARK   57  A    between atoms: _136  and  _139
REMARK   58  A    between atoms: _139  and  _140
REMARK   59  A    between atoms: _140  and  _141
REMARK   60  A    between atoms: _144  and  _146
REMARK   61  A    between atoms: _146  and  _147
REMARK   62  A    between atoms: _150  and  _152
REMARK   63  A    between atoms: _152  and  _153
REMARK   64  A    between atoms: _152  and  _155
REMARK   65  A    between atoms: _155  and  _156
REMARK   66  A    between atoms: _161  and  _163
REMARK   67  A    between atoms: _163  and  _164
REMARK   68  A    between atoms: _167  and  _169
REMARK   69  A    between atoms: _169  and  _170
REMARK   70  A    between atoms: _169  and  _172
REMARK   71  A    between atoms: _172  and  _173
REMARK   72  A    between atoms: _173  and  _174
REMARK   73  A    between atoms: _174  and  _175
REMARK   74  A    between atoms: _175  and  _176
REMARK   75  A    between atoms: _180  and  _182
REMARK   76  A    between atoms: _182  and  _183
REMARK   77  A    between atoms: _182  and  _185
REMARK   78  A    between atoms: _185  and  _186
REMARK   79  A    between atoms: _186  and  _187
REMARK   80  A    between atoms: _187  and  _188
REMARK   81  A    between atoms: _188  and  _189
REMARK   82  A    between atoms: _193  and  _195
REMARK   83  A    between atoms: _195  and  _196
REMARK   84  A    between atoms: _195  and  _198
REMARK   85  A    between atoms: _198  and  _199
REMARK   86  A    between atoms: _199  and  _200
REMARK   87  A    between atoms: _200  and  _201
REMARK   88  A    between atoms: _210  and  _212
REMARK   89  A    between atoms: _212  and  _213
REMARK   90  A    between atoms: _212  and  _215
REMARK   91  A    between atoms: _215  and  _216
REMARK   92  A    between atoms: _216  and  _217
REMARK   93  A    between atoms: _220  and  _222
REMARK   94  A    between atoms: _222  and  _223
REMARK   95  A    between atoms: _222  and  _225
REMARK   96  A    between atoms: _228  and  _230
REMARK   97  A    between atoms: _230  and  _231
REMARK   98  A    between atoms: _234  and  _236
REMARK   99  A    between atoms: _236  and  _237
REMARK  100  A    between atoms: _236  and  _239
REMARK  101  A    between atoms: _239  and  _240
REMARK  102  A    between atoms: _250  and  _252
REMARK  103  A    between atoms: _252  and  _253
REMARK  104  A    between atoms: _252  and  _255
REMARK  105  A    between atoms: _258  and  _260
REMARK  106  A    between atoms: _260  and  _261
REMARK  107  A    between atoms: _260  and  _263
REMARK  108  A    between atoms: _263  and  _264
REMARK  109  A    between atoms: _267  and  _269
REMARK  110  A    between atoms: _269  and  _270
REMARK  111  A    between atoms: _269  and  _272
REMARK  112  A    between atoms: _272  and  _273
REMARK  113  A    between atoms: _279  and  _281
REMARK  114  A    between atoms: _281  and  _282
REMARK  115  A    between atoms: _281  and  _284
REMARK  116  A    between atoms: _284  and  _285
REMARK  117  A    between atoms: _285  and  _286
REMARK  118  A    between atoms: _291  and  _293
REMARK  119  A    between atoms: _293  and  _294
REMARK  120  A    between atoms: _293  and  _296
REMARK  121  A    between atoms: _299  and  _301
REMARK  122  A    between atoms: _301  and  _302
REMARK  123  A    between atoms: _301  and  _304
REMARK  124  A    between atoms: _304  and  _305
REMARK  125  A    between atoms: _308  and  _310
REMARK  126  A    between atoms: _310  and  _311
REMARK  127  A    between atoms: _310  and  _313
REMARK  128  A    between atoms: _313  and  _314
REMARK  129  A    between atoms: _317  and  _319
REMARK  130  A    between atoms: _319  and  _320
REMARK  131  A    between atoms: _319  and  _322
REMARK  132  A    between atoms: _322  and  _323
REMARK  133  A    between atoms: _326  and  _328
REMARK  134  A    between atoms: _328  and  _329
REMARK  135  A    between atoms: _328  and  _331
REMARK  136  A    between atoms: _331  and  _332
REMARK  137  A    between atoms: _335  and  _337
REMARK  138  A    between atoms: _337  and  _338
REMARK  139  A    between atoms: _337  and  _340
REMARK  140  A    between atoms: _340  and  _341
REMARK  141  A    between atoms: _341  and  _342
REMARK  142  A    between atoms: _342  and  _343
REMARK  143  A    between atoms: _352  and  _354
REMARK  144  A    between atoms: _354  and  _355
REMARK  145  A    between atoms: _354  and  _357
REMARK  146  A    between atoms: _357  and  _358
REMARK  147  A    between atoms: _361  and  _363
REMARK  148  A    between atoms: _363  and  _364
REMARK  149  A    between atoms: _363  and  _366
REMARK  150  A    between atoms: _366  and  _367
REMARK  151  A    between atoms: _371  and  _372
REMARK  152  A    between atoms: _377  and  _379
REMARK  153  A    between atoms: _379  and  _380
REMARK  154  A    between atoms: _379  and  _382
REMARK  155  A    between atoms: _382  and  _383
REMARK  156  A    between atoms: _388  and  _389
REMARK  157  A    between atoms: _391  and  _393
REMARK  158  A    between atoms: _393  and  _394
REMARK  159  A    between atoms: _393  and  _396
REMARK  160  A    between atoms: _396  and  _397
REMARK  161  A    between atoms: _407  and  _409
REMARK  162  A    between atoms: _409  and  _410
REMARK  163  A    between atoms: _409  and  _412
REMARK  164  A    between atoms: _412  and  _413
REMARK  165  A    between atoms: _419  and  _421
REMARK  166  A    between atoms: _421  and  _422
REMARK  167  A    between atoms: _421  and  _424
REMARK  168  A    between atoms: _424  and  _425
REMARK  169  A    between atoms: _428  and  _430
REMARK  170  A    between atoms: _430  and  _431
REMARK  171  A    between atoms: _430  and  _433
REMARK  172  A    between atoms: _433  and  _434
REMARK  173  A    between atoms: _444  and  _446
REMARK  174  A    between atoms: _446  and  _447
REMARK  175  A    between atoms: _446  and  _449
REMARK  176  A    between atoms: _449  and  _450
REMARK  177  A    between atoms: _450  and  _451
REMARK  178  A    between atoms: _453  and  _455
REMARK  179  A    between atoms: _455  and  _456
REMARK  180  A    between atoms: _455  and  _458
REMARK  181  A    between atoms: _458  and  _459
REMARK  182  A    between atoms: _464  and  _466
REMARK  183  A    between atoms: _466  and  _467
REMARK  184  A    between atoms: _470  and  _471
REMARK  185  A    between atoms: _476  and  _478
REMARK  186  A    between atoms: _478  and  _479
REMARK  187  A    between atoms: _478  and  _481
REMARK  188  A    between atoms: _481  and  _482
REMARK  189  A    between atoms: _492  and  _494
REMARK  190  A    between atoms: _494  and  _495
REMARK  191  A    between atoms: _499  and  _500
REMARK  192  A    between atoms: _505  and  _507
REMARK  193  A    between atoms: _507  and  _508
REMARK  194  A    between atoms: _507  and  _510
REMARK  195  A    between atoms: _510  and  _511
REMARK  196  A    between atoms: _511  and  _512
REMARK  197  A    between atoms: _517  and  _519
REMARK  198  A    between atoms: _519  and  _520
REMARK  199  A    between atoms: _522  and  _524
REMARK  200  A    between atoms: _524  and  _525
REMARK  201  A    between atoms: _527  and  _529
REMARK  202  A    between atoms: _529  and  _530
REMARK  203  A    between atoms: _529  and  _532
REMARK  204  A    between atoms: _532  and  _533
REMARK  205  A    between atoms: _543  and  _545
REMARK  206  A    between atoms: _545  and  _546
REMARK  207  A    between atoms: _545  and  _548
REMARK  208  A    between atoms: _548  and  _549
REMARK  209  A    between atoms: _552  and  _554
REMARK  210  A    between atoms: _554  and  _555
REMARK  211  A    between atoms: _554  and  _557
REMARK  212  A    between atoms: _557  and  _558
REMARK  213  A    between atoms: _561  and  _563
REMARK  214  A    between atoms: _563  and  _564
REMARK  215  A    between atoms: _563  and  _566
REMARK  216  A    between atoms: _566  and  _567
REMARK  217  A    between atoms: _567  and  _568
REMARK  218  A    between atoms: _568  and  _569
REMARK  219  A    between atoms: _578  and  _580
REMARK  220  A    between atoms: _580  and  _581
REMARK  221  A    between atoms: _580  and  _583
REMARK  222  A    between atoms: _583  and  _584
REMARK  223  A    between atoms: _594  and  _596
REMARK  224  A    between atoms: _596  and  _597
REMARK  225  A    between atoms: _599  and  _601
REMARK  226  A    between atoms: _601  and  _602
REMARK  227  A    between atoms: _601  and  _604
REMARK  228  A    between atoms: _604  and  _605
REMARK  229  A    between atoms: _610  and  _612
REMARK  230  A    between atoms: _612  and  _613
REMARK  231  A    between atoms: _616  and  _618
REMARK  232  A    between atoms: _618  and  _619
REMARK  233  A    between atoms: _618  and  _621
REMARK  234  A    between atoms: _621  and  _622
REMARK  235  A    between atoms: _625  and  _627
REMARK  236  A    between atoms: _627  and  _628
REMARK  237  A    between atoms: _627  and  _630
REMARK  238  A    between atoms: _630  and  _631
REMARK  239  A    between atoms: _637  and  _639
REMARK  240  A    between atoms: _639  and  _640
REMARK  241  A    between atoms: _639  and  _642
REMARK  242  A    between atoms: _642  and  _643
REMARK  243  A    between atoms: _643  and  _644
REMARK  244  A    between atoms: _647  and  _649
REMARK  245  A    between atoms: _649  and  _650
REMARK  246  A    between atoms: _649  and  _652
REMARK  247  A    between atoms: _652  and  _653
REMARK  248  A    between atoms: _653  and  _654
REMARK  249  A    between atoms: _654  and  _655
REMARK                            x       y       z     vdW  Elec       q    Type
REMARK                         _______ _______ _______ _____ _____    ______ ____
ROOT
ATOM      1  O   HOH     1      -6.485 -15.057  14.790  0.00  0.00    +0.000 OA
ENDROOT
TORSDOF 0
REMARK  Name = ../refined-set-2016/3jzj/3jzj_pocket.pdb
REMARK  249 active torsions:
REMARK  status: ('A' for Active; 'I' for Inactive)
REMARK    1  A    between atoms: _1  and  _3
REMARK    2  A    between atoms: _3  and  _4
REMARK    3  A    between atoms: _3  and  _6
REMARK    4  A    between atoms: _6  and  _7
REMARK    5  A    between atoms: _10  and  _12
REMARK    6  A    between atoms: _12  and  _13
REMARK    7  A    between atoms: _12  and  _15
REMARK    8  A    between atoms: _15  and  _16
REMARK    9  A    between atoms: _19  and  _21
REMARK   10  A    between atoms: _21  and  _22
REMARK   11  A    between atoms: _21  and  _24
REMARK   12  A    between atoms: _24  and  _25
REMARK   13  A    between atoms: _27  and  _29
REMARK   14  A    between atoms: _29  and  _30
REMARK   15  A    between atoms: _29  and  _32
REMARK   16  A    between atoms: _32  and  _33
REMARK   17  A    between atoms: _38  and  _40
REMARK   18  A    between atoms: _40  and  _41
REMARK   19  A    between atoms: _40  and  _43
REMARK   20  A    between atoms: _43  and  _44
REMARK   21  A    between atoms: _44  and  _45
REMARK   22  A    between atoms: _48  and  _50
REMARK   23  A    between atoms: _50  and  _51
REMARK   24  A    between atoms: _54  and  _56
REMARK   25  A    between atoms: _56  and  _57
REMARK   26  A    between atoms: _56  and  _59
REMARK   27  A    between atoms: _59  and  _60
REMARK   28  A    between atoms: _60  and  _61
REMARK   29  A    between atoms: _64  and  _66
REMARK   30  A    between atoms: _66  and  _67
REMARK   31  A    between atoms: _66  and  _69
REMARK   32  A    between atoms: _69  and  _70
REMARK   33  A    between atoms: _70  and  _71
REMARK   34  A    between atoms: _71  and  _72
REMARK   35  A    between atoms: _72  and  _73
REMARK   36  A    between atoms: _77  and  _79
REMARK   37  A    between atoms: _79  and  _80
REMARK   38  A    between atoms: _79  and  _82
REMARK   39  A    between atoms: _82  and  _83
REMARK   40  A    between atoms: _88  and  _89
REMARK   41  A    between atoms: _91  and  _93
REMARK   42  A    between atoms: _93  and  _94
REMARK   43  A    between atoms: _93  and  _96
REMARK   44  A    between atoms: _96  and  _97
REMARK   45  A    between atoms: _102  and  _104
REMARK   46  A    between atoms: _104  and  _105
REMARK   47  A    between atoms: _104  and  _107
REMARK   48  A    between atoms: _111  and  _112
REMARK   49  A    between atoms: _117  and  _119
REMARK   50  A    between atoms: _119  and  _120
REMARK   51  A    between atoms: _119  and  _122
REMARK   52  A    between atoms: _122  and  _123
REMARK   53  A    between atoms: _129  and  _131
REMARK   54  A    between atoms: _131  and  _132
REMARK   55  A    between atoms: _134  and  _136
REMARK   56  A    between atoms: _136  and  _137
REMARK   57  A    between atoms: _136  and  _139
REMARK   58  A    between atoms: _139  and  _140
REMARK   59  A    between atoms: _140  and  _141
REMARK   60  A    between atoms: _144  and  _146
REMARK   61  A    between atoms: _146  and  _147
REMARK   62  A    between atoms: _150  and  _152
REMARK   63  A    between atoms: _152  and  _153
REMARK   64  A    between atoms: _152  and  _155
REMARK   65  A    between atoms: _155  and  _156
REMARK   66  A    between atoms: _161  and  _163
REMARK   67  A    between atoms: _163  and  _164
REMARK   68  A    between atoms: _167  and  _169
REMARK   69  A    between atoms: _169  and  _170
REMARK   70  A    between atoms: _169  and  _172
REMARK   71  A    between atoms: _172  and  _173
REMARK   72  A    between atoms: _173  and  _174
REMARK   73  A    between atoms: _174  and  _175
REMARK   74  A    between atoms: _175  and  _176
REMARK   75  A    between atoms: _180  and  _182
REMARK   76  A    between atoms: _182  and  _183
REMARK   77  A    between atoms: _182  and  _185
REMARK   78  A    between atoms: _185  and  _186
REMARK   79  A    between atoms: _186  and  _187
REMARK   80  A    between atoms: _187  and  _188
REMARK   81  A    between atoms: _188  and  _189
REMARK   82  A    between atoms: _193  and  _195
REMARK   83  A    between atoms: _195  and  _196
REMARK   84  A    between atoms: _195  and  _198
REMARK   85  A    between atoms: _198  and  _199
REMARK   86  A    between atoms: _199  and  _200
REMARK   87  A    between atoms: _200  and  _201
REMARK   88  A    between atoms: _210  and  _212
REMARK   89  A    between atoms: _212  and  _213
REMARK   90  A    between atoms: _212  and  _215
REMARK   91  A    between atoms: _215  and  _216
REMARK   92  A    between atoms: _216  and  _217
REMARK   93  A    between atoms: _220  and  _222
REMARK   94  A    between atoms: _222  and  _223
REMARK   95  A    between atoms: _222  and  _225
REMARK   96  A    between atoms: _228  and  _230
REMARK   97  A    between atoms: _230  and  _231
REMARK   98  A    between atoms: _234  and  _236
REMARK   99  A    between atoms: _236  and  _237
REMARK  100  A    between atoms: _236  and  _239
REMARK  101  A    between atoms: _239  and  _240
REMARK  102  A    between atoms: _250  and  _252
REMARK  103  A    between atoms: _252  and  _253
REMARK  104  A    between atoms: _252  and  _255
REMARK  105  A    between atoms: _258  and  _260
REMARK  106  A    between atoms: _260  and  _261
REMARK  107  A    between atoms: _260  and  _263
REMARK  108  A    between atoms: _263  and  _264
REMARK  109  A    between atoms: _267  and  _269
REMARK  110  A    between atoms: _269  and  _270
REMARK  111  A    between atoms: _269  and  _272
REMARK  112  A    between atoms: _272  and  _273
REMARK  113  A    between atoms: _279  and  _281
REMARK  114  A    between atoms: _281  and  _282
REMARK  115  A    between atoms: _281  and  _284
REMARK  116  A    between atoms: _284  and  _285
REMARK  117  A    between atoms: _285  and  _286
REMARK  118  A    between atoms: _291  and  _293
REMARK  119  A    between atoms: _293  and  _294
REMARK  120  A    between atoms: _293  and  _296
REMARK  121  A    between atoms: _299  and  _301
REMARK  122  A    between atoms: _301  and  _302
REMARK  123  A    between atoms: _301  and  _304
REMARK  124  A    between atoms: _304  and  _305
REMARK  125  A    between atoms: _308  and  _310
REMARK  126  A    between atoms: _310  and  _311
REMARK  127  A    between atoms: _310  and  _313
REMARK  128  A    between atoms: _313  and  _314
REMARK  129  A    between atoms: _317  and  _319
REMARK  130  A    between atoms: _319  and  _320
REMARK  131  A    between atoms: _319  and  _322
REMARK  132  A    between atoms: _322  and  _323
REMARK  133  A    between atoms: _326  and  _328
REMARK  134  A    between atoms: _328  and  _329
REMARK  135  A    between atoms: _328  and  _331
REMARK  136  A    between atoms: _331  and  _332
REMARK  137  A    between atoms: _335  and  _337
REMARK  138  A    between atoms: _337  and  _338
REMARK  139  A    between atoms: _337  and  _340
REMARK  140  A    between atoms: _340  and  _341
REMARK  141  A    between atoms: _341  and  _342
REMARK  142  A    between atoms: _342  and  _343
REMARK  143  A    between atoms: _352  and  _354
REMARK  144  A    between atoms: _354  and  _355
REMARK  145  A    between atoms: _354  and  _357
REMARK  146  A    between atoms: _357  and  _358
REMARK  147  A    between atoms: _361  and  _363
REMARK  148  A    between atoms: _363  and  _364
REMARK  149  A    between atoms: _363  and  _366
REMARK  150  A    between atoms: _366  and  _367
REMARK  151  A    between atoms: _371  and  _372
REMARK  152  A    between atoms: _377  and  _379
REMARK  153  A    between atoms: _379  and  _380
REMARK  154  A    between atoms: _379  and  _382
REMARK  155  A    between atoms: _382  and  _383
REMARK  156  A    between atoms: _388  and  _389
REMARK  157  A    between atoms: _391  and  _393
REMARK  158  A    between atoms: _393  and  _394
REMARK  159  A    between atoms: _393  and  _396
REMARK  160  A    between atoms: _396  and  _397
REMARK  161  A    between atoms: _407  and  _409
REMARK  162  A    between atoms: _409  and  _410
REMARK  163  A    between atoms: _409  and  _412
REMARK  164  A    between atoms: _412  and  _413
REMARK  165  A    between atoms: _419  and  _421
REMARK  166  A    between atoms: _421  and  _422
REMARK  167  A    between atoms: _421  and  _424
REMARK  168  A    between atoms: _424  and  _425
REMARK  169  A    between atoms: _428  and  _430
REMARK  170  A    between atoms: _430  and  _431
REMARK  171  A    between atoms: _430  and  _433
REMARK  172  A    between atoms: _433  and  _434
REMARK  173  A    between atoms: _444  and  _446
REMARK  174  A    between atoms: _446  and  _447
REMARK  175  A    between atoms: _446  and  _449
REMARK  176  A    between atoms: _449  and  _450
REMARK  177  A    between atoms: _450  and  _451
REMARK  178  A    between atoms: _453  and  _455
REMARK  179  A    between atoms: _455  and  _456
REMARK  180  A    between atoms: _455  and  _458
REMARK  181  A    between atoms: _458  and  _459
REMARK  182  A    between atoms: _464  and  _466
REMARK  183  A    between atoms: _466  and  _467
REMARK  184  A    between atoms: _470  and  _471
REMARK  185  A    between atoms: _476  and  _478
REMARK  186  A    between atoms: _478  and  _479
REMARK  187  A    between atoms: _478  and  _481
REMARK  188  A    between atoms: _481  and  _482
REMARK  189  A    between atoms: _492  and  _494
REMARK  190  A    between atoms: _494  and  _495
REMARK  191  A    between atoms: _499  and  _500
REMARK  192  A    between atoms: _505  and  _507
REMARK  193  A    between atoms: _507  and  _508
REMARK  194  A    between atoms: _507  and  _510
REMARK  195  A    between atoms: _510  and  _511
REMARK  196  A    between atoms: _511  and  _512
REMARK  197  A    between atoms: _517  and  _519
REMARK  198  A    between atoms: _519  and  _520
REMARK  199  A    between atoms: _522  and  _524
REMARK  200  A    between atoms: _524  and  _525
REMARK  201  A    between atoms: _527  and  _529
REMARK  202  A    between atoms: _529  and  _530
REMARK  203  A    between atoms: _529  and  _532
REMARK  204  A    between atoms: _532  and  _533
REMARK  205  A    between atoms: _543  and  _545
REMARK  206  A    between atoms: _545  and  _546
REMARK  207  A    between atoms: _545  and  _548
REMARK  208  A    between atoms: _548  and  _549
REMARK  209  A    between atoms: _552  and  _554
REMARK  210  A    between atoms: _554  and  _555
REMARK  211  A    between atoms: _554  and  _557
REMARK  212  A    between atoms: _557  and  _558
REMARK  213  A    between atoms: _561  and  _563
REMARK  214  A    between atoms: _563  and  _564
REMARK  215  A    between atoms: _563  and  _566
REMARK  216  A    between atoms: _566  and  _567
REMARK  217  A    between atoms: _567  and  _568
REMARK  218  A    between atoms: _568  and  _569
REMARK  219  A    between atoms: _578  and  _580
REMARK  220  A    between atoms: _580  and  _581
REMARK  221  A    between atoms: _580  and  _583
REMARK  222  A    between atoms: _583  and  _584
REMARK  223  A    between atoms: _594  and  _596
REMARK  224  A    between atoms: _596  and  _597
REMARK  225  A    between atoms: _599  and  _601
REMARK  226  A    between atoms: _601  and  _602
REMARK  227  A    between atoms: _601  and  _604
REMARK  228  A    between atoms: _604  and  _605
REMARK  229  A    between atoms: _610  and  _612
REMARK  230  A    between atoms: _612  and  _613
REMARK  231  A    between atoms: _616  and  _618
REMARK  232  A    between atoms: _618  and  _619
REMARK  233  A    between atoms: _618  and  _621
REMARK  234  A    between atoms: _621  and  _622
REMARK  235  A    between atoms: _625  and  _627
REMARK  236  A    between atoms: _627  and  _628
REMARK  237  A    between atoms: _627  and  _630
REMARK  238  A    between atoms: _630  and  _631
REMARK  239  A    between atoms: _637  and  _639
REMARK  240  A    between atoms: _639  and  _640
REMARK  241  A    between atoms: _639  and  _642
REMARK  242  A    between atoms: _642  and  _643
REMARK  243  A    between atoms: _643  and  _644
REMARK  244  A    between atoms: _647  and  _649
REMARK  245  A    between atoms: _649  and  _650
REMARK  246  A    between atoms: _649  and  _652
REMARK  247  A    between atoms: _652  and  _653
REMARK  248  A    between atoms: _653  and  _654
REMARK  249  A    between atoms: _654  and  _655
REMARK                            x       y       z     vdW  Elec       q    Type
REMARK                         _______ _______ _______ _____ _____    ______ ____
ROOT
ATOM      1  O   HOH     1     -12.041 -14.779  20.515  0.00  0.00    +0.000 OA
ENDROOT
TORSDOF 0
REMARK  Name = ../refined-set-2016/3jzj/3jzj_pocket.pdb
REMARK  249 active torsions:
REMARK  status: ('A' for Active; 'I' for Inactive)
REMARK    1  A    between atoms: _1  and  _3
REMARK    2  A    between atoms: _3  and  _4
REMARK    3  A    between atoms: _3  and  _6
REMARK    4  A    between atoms: _6  and  _7
REMARK    5  A    between atoms: _10  and  _12
REMARK    6  A    between atoms: _12  and  _13
REMARK    7  A    between atoms: _12  and  _15
REMARK    8  A    between atoms: _15  and  _16
REMARK    9  A    between atoms: _19  and  _21
REMARK   10  A    between atoms: _21  and  _22
REMARK   11  A    between atoms: _21  and  _24
REMARK   12  A    between atoms: _24  and  _25
REMARK   13  A    between atoms: _27  and  _29
REMARK   14  A    between atoms: _29  and  _30
REMARK   15  A    between atoms: _29  and  _32
REMARK   16  A    between atoms: _32  and  _33
REMARK   17  A    between atoms: _38  and  _40
REMARK   18  A    between atoms: _40  and  _41
REMARK   19  A    between atoms: _40  and  _43
REMARK   20  A    between atoms: _43  and  _44
REMARK   21  A    between atoms: _44  and  _45
REMARK   22  A    between atoms: _48  and  _50
REMARK   23  A    between atoms: _50  and  _51
REMARK   24  A    between atoms: _54  and  _56
REMARK   25  A    between atoms: _56  and  _57
REMARK   26  A    between atoms: _56  and  _59
REMARK   27  A    between atoms: _59  and  _60
REMARK   28  A    between atoms: _60  and  _61
REMARK   29  A    between atoms: _64  and  _66
REMARK   30  A    between atoms: _66  and  _67
REMARK   31  A    between atoms: _66  and  _69
REMARK   32  A    between atoms: _69  and  _70
REMARK   33  A    between atoms: _70  and  _71
REMARK   34  A    between atoms: _71  and  _72
REMARK   35  A    between atoms: _72  and  _73
REMARK   36  A    between atoms: _77  and  _79
REMARK   37  A    between atoms: _79  and  _80
REMARK   38  A    between atoms: _79  and  _82
REMARK   39  A    between atoms: _82  and  _83
REMARK   40  A    between atoms: _88  and  _89
REMARK   41  A    between atoms: _91  and  _93
REMARK   42  A    between atoms: _93  and  _94
REMARK   43  A    between atoms: _93  and  _96
REMARK   44  A    between atoms: _96  and  _97
REMARK   45  A    between atoms: _102  and  _104
REMARK   46  A    between atoms: _104  and  _105
REMARK   47  A    between atoms: _104  and  _107
REMARK   48  A    between atoms: _111  and  _112
REMARK   49  A    between atoms: _117  and  _119
REMARK   50  A    between atoms: _119  and  _120
REMARK   51  A    between atoms: _119  and  _122
REMARK   52  A    between atoms: _122  and  _123
REMARK   53  A    between atoms: _129  and  _131
REMARK   54  A    between atoms: _131  and  _132
REMARK   55  A    between atoms: _134  and  _136
REMARK   56  A    between atoms: _136  and  _137
REMARK   57  A    between atoms: _136  and  _139
REMARK   58  A    between atoms: _139  and  _140
REMARK   59  A    between atoms: _140  and  _141
REMARK   60  A    between atoms: _144  and  _146
REMARK   61  A    between atoms: _146  and  _147
REMARK   62  A    between atoms: _150  and  _152
REMARK   63  A    between atoms: _152  and  _153
REMARK   64  A    between atoms: _152  and  _155
REMARK   65  A    between atoms: _155  and  _156
REMARK   66  A    between atoms: _161  and  _163
REMARK   67  A    between atoms: _163  and  _164
REMARK   68  A    between atoms: _167  and  _169
REMARK   69  A    between atoms: _169  and  _170
REMARK   70  A    between atoms: _169  and  _172
REMARK   71  A    between atoms: _172  and  _173
REMARK   72  A    between atoms: _173  and  _174
REMARK   73  A    between atoms: _174  and  _175
REMARK   74  A    between atoms: _175  and  _176
REMARK   75  A    between atoms: _180  and  _182
REMARK   76  A    between atoms: _182  and  _183
REMARK   77  A    between atoms: _182  and  _185
REMARK   78  A    between atoms: _185  and  _186
REMARK   79  A    between atoms: _186  and  _187
REMARK   80  A    between atoms: _187  and  _188
REMARK   81  A    between atoms: _188  and  _189
REMARK   82  A    between atoms: _193  and  _195
REMARK   83  A    between atoms: _195  and  _196
REMARK   84  A    between atoms: _195  and  _198
REMARK   85  A    between atoms: _198  and  _199
REMARK   86  A    between atoms: _199  and  _200
REMARK   87  A    between atoms: _200  and  _201
REMARK   88  A    between atoms: _210  and  _212
REMARK   89  A    between atoms: _212  and  _213
REMARK   90  A    between atoms: _212  and  _215
REMARK   91  A    between atoms: _215  and  _216
REMARK   92  A    between atoms: _216  and  _217
REMARK   93  A    between atoms: _220  and  _222
REMARK   94  A    between atoms: _222  and  _223
REMARK   95  A    between atoms: _222  and  _225
REMARK   96  A    between atoms: _228  and  _230
REMARK   97  A    between atoms: _230  and  _231
REMARK   98  A    between atoms: _234  and  _236
REMARK   99  A    between atoms: _236  and  _237
REMARK  100  A    between atoms: _236  and  _239
REMARK  101  A    between atoms: _239  and  _240
REMARK  102  A    between atoms: _250  and  _252
REMARK  103  A    between atoms: _252  and  _253
REMARK  104  A    between atoms: _252  and  _255
REMARK  105  A    between atoms: _258  and  _260
REMARK  106  A    between atoms: _260  and  _261
REMARK  107  A    between atoms: _260  and  _263
REMARK  108  A    between atoms: _263  and  _264
REMARK  109  A    between atoms: _267  and  _269
REMARK  110  A    between atoms: _269  and  _270
REMARK  111  A    between atoms: _269  and  _272
REMARK  112  A    between atoms: _272  and  _273
REMARK  113  A    between atoms: _279  and  _281
REMARK  114  A    between atoms: _281  and  _282
REMARK  115  A    between atoms: _281  and  _284
REMARK  116  A    between atoms: _284  and  _285
REMARK  117  A    between atoms: _285  and  _286
REMARK  118  A    between atoms: _291  and  _293
REMARK  119  A    between atoms: _293  and  _294
REMARK  120  A    between atoms: _293  and  _296
REMARK  121  A    between atoms: _299  and  _301
REMARK  122  A    between atoms: _301  and  _302
REMARK  123  A    between atoms: _301  and  _304
REMARK  124  A    between atoms: _304  and  _305
REMARK  125  A    between atoms: _308  and  _310
REMARK  126  A    between atoms: _310  and  _311
REMARK  127  A    between atoms: _310  and  _313
REMARK  128  A    between atoms: _313  and  _314
REMARK  129  A    between atoms: _317  and  _319
REMARK  130  A    between atoms: _319  and  _320
REMARK  131  A    between atoms: _319  and  _322
REMARK  132  A    between atoms: _322  and  _323
REMARK  133  A    between atoms: _326  and  _328
REMARK  134  A    between atoms: _328  and  _329
REMARK  135  A    between atoms: _328  and  _331
REMARK  136  A    between atoms: _331  and  _332
REMARK  137  A    between atoms: _335  and  _337
REMARK  138  A    between atoms: _337  and  _338
REMARK  139  A    between atoms: _337  and  _340
REMARK  140  A    between atoms: _340  and  _341
REMARK  141  A    between atoms: _341  and  _342
REMARK  142  A    between atoms: _342  and  _343
REMARK  143  A    between atoms: _352  and  _354
REMARK  144  A    between atoms: _354  and  _355
REMARK  145  A    between atoms: _354  and  _357
REMARK  146  A    between atoms: _357  and  _358
REMARK  147  A    between atoms: _361  and  _363
REMARK  148  A    between atoms: _363  and  _364
REMARK  149  A    between atoms: _363  and  _366
REMARK  150  A    between atoms: _366  and  _367
REMARK  151  A    between atoms: _371  and  _372
REMARK  152  A    between atoms: _377  and  _379
REMARK  153  A    between atoms: _379  and  _380
REMARK  154  A    between atoms: _379  and  _382
REMARK  155  A    between atoms: _382  and  _383
REMARK  156  A    between atoms: _388  and  _389
REMARK  157  A    between atoms: _391  and  _393
REMARK  158  A    between atoms: _393  and  _394
REMARK  159  A    between atoms: _393  and  _396
REMARK  160  A    between atoms: _396  and  _397
REMARK  161  A    between atoms: _407  and  _409
REMARK  162  A    between atoms: _409  and  _410
REMARK  163  A    between atoms: _409  and  _412
REMARK  164  A    between atoms: _412  and  _413
REMARK  165  A    between atoms: _419  and  _421
REMARK  166  A    between atoms: _421  and  _422
REMARK  167  A    between atoms: _421  and  _424
REMARK  168  A    between atoms: _424  and  _425
REMARK  169  A    between atoms: _428  and  _430
REMARK  170  A    between atoms: _430  and  _431
REMARK  171  A    between atoms: _430  and  _433
REMARK  172  A    between atoms: _433  and  _434
REMARK  173  A    between atoms: _444  and  _446
REMARK  174  A    between atoms: _446  and  _447
REMARK  175  A    between atoms: _446  and  _449
REMARK  176  A    between atoms: _449  and  _450
REMARK  177  A    between atoms: _450  and  _451
REMARK  178  A    between atoms: _453  and  _455
REMARK  179  A    between atoms: _455  and  _456
REMARK  180  A    between atoms: _455  and  _458
REMARK  181  A    between atoms: _458  and  _459
REMARK  182  A    between atoms: _464  and  _466
REMARK  183  A    between atoms: _466  and  _467
REMARK  184  A    between atoms: _470  and  _471
REMARK  185  A    between atoms: _476  and  _478
REMARK  186  A    between atoms: _478  and  _479
REMARK  187  A    between atoms: _478  and  _481
REMARK  188  A    between atoms: _481  and  _482
REMARK  189  A    between atoms: _492  and  _494
REMARK  190  A    between atoms: _494  and  _495
REMARK  191  A    between atoms: _499  and  _500
REMARK  192  A    between atoms: _505  and  _507
REMARK  193  A    between atoms: _507  and  _508
REMARK  194  A    between atoms: _507  and  _510
REMARK  195  A    between atoms: _510  and  _511
REMARK  196  A    between atoms: _511  and  _512
REMARK  197  A    between atoms: _517  and  _519
REMARK  198  A    between atoms: _519  and  _520
REMARK  199  A    between atoms: _522  and  _524
REMARK  200  A    between atoms: _524  and  _525
REMARK  201  A    between atoms: _527  and  _529
REMARK  202  A    between atoms: _529  and  _530
REMARK  203  A    between atoms: _529  and  _532
REMARK  204  A    between atoms: _532  and  _533
REMARK  205  A    between atoms: _543  and  _545
REMARK  206  A    between atoms: _545  and  _546
REMARK  207  A    between atoms: _545  and  _548
REMARK  208  A    between atoms: _548  and  _549
REMARK  209  A    between atoms: _552  and  _554
REMARK  210  A    between atoms: _554  and  _555
REMARK  211  A    between atoms: _554  and  _557
REMARK  212  A    between atoms: _557  and  _558
REMARK  213  A    between atoms: _561  and  _563
REMARK  214  A    between atoms: _563  and  _564
REMARK  215  A    between atoms: _563  and  _566
REMARK  216  A    between atoms: _566  and  _567
REMARK  217  A    between atoms: _567  and  _568
REMARK  218  A    between atoms: _568  and  _569
REMARK  219  A    between atoms: _578  and  _580
REMARK  220  A    between atoms: _580  and  _581
REMARK  221  A    between atoms: _580  and  _583
REMARK  222  A    between atoms: _583  and  _584
REMARK  223  A    between atoms: _594  and  _596
REMARK  224  A    between atoms: _596  and  _597
REMARK  225  A    between atoms: _599  and  _601
REMARK  226  A    between atoms: _601  and  _602
REMARK  227  A    between atoms: _601  and  _604
REMARK  228  A    between atoms: _604  and  _605
REMARK  229  A    between atoms: _610  and  _612
REMARK  230  A    between atoms: _612  and  _613
REMARK  231  A    between atoms: _616  and  _618
REMARK  232  A    between atoms: _618  and  _619
REMARK  233  A    between atoms: _618  and  _621
REMARK  234  A    between atoms: _621  and  _622
REMARK  235  A    between atoms: _625  and  _627
REMARK  236  A    between atoms: _627  and  _628
REMARK  237  A    between atoms: _627  and  _630
REMARK  238  A    between atoms: _630  and  _631
REMARK  239  A    between atoms: _637  and  _639
REMARK  240  A    between atoms: _639  and  _640
REMARK  241  A    between atoms: _639  and  _642
REMARK  242  A    between atoms: _642  and  _643
REMARK  243  A    between atoms: _643  and  _644
REMARK  244  A    between atoms: _647  and  _649
REMARK  245  A    between atoms: _649  and  _650
REMARK  246  A    between atoms: _649  and  _652
REMARK  247  A    between atoms: _652  and  _653
REMARK  248  A    between atoms: _653  and  _654
REMARK  249  A    between atoms: _654  and  _655
REMARK                            x       y       z     vdW  Elec       q    Type
REMARK                         _______ _______ _______ _____ _____    ______ ____
ROOT
ATOM      1  O   HOH     1      -2.918  -0.885  25.428  0.00  0.00    +0.000 OA
ENDROOT
TORSDOF 0
REMARK  Name = ../refined-set-2016/3jzj/3jzj_pocket.pdb
REMARK  249 active torsions:
REMARK  status: ('A' for Active; 'I' for Inactive)
REMARK    1  A    between atoms: _1  and  _3
REMARK    2  A    between atoms: _3  and  _4
REMARK    3  A    between atoms: _3  and  _6
REMARK    4  A    between atoms: _6  and  _7
REMARK    5  A    between atoms: _10  and  _12
REMARK    6  A    between atoms: _12  and  _13
REMARK    7  A    between atoms: _12  and  _15
REMARK    8  A    between atoms: _15  and  _16
REMARK    9  A    between atoms: _19  and  _21
REMARK   10  A    between atoms: _21  and  _22
REMARK   11  A    between atoms: _21  and  _24
REMARK   12  A    between atoms: _24  and  _25
REMARK   13  A    between atoms: _27  and  _29
REMARK   14  A    between atoms: _29  and  _30
REMARK   15  A    between atoms: _29  and  _32
REMARK   16  A    between atoms: _32  and  _33
REMARK   17  A    between atoms: _38  and  _40
REMARK   18  A    between atoms: _40  and  _41
REMARK   19  A    between atoms: _40  and  _43
REMARK   20  A    between atoms: _43  and  _44
REMARK   21  A    between atoms: _44  and  _45
REMARK   22  A    between atoms: _48  and  _50
REMARK   23  A    between atoms: _50  and  _51
REMARK   24  A    between atoms: _54  and  _56
REMARK   25  A    between atoms: _56  and  _57
REMARK   26  A    between atoms: _56  and  _59
REMARK   27  A    between atoms: _59  and  _60
REMARK   28  A    between atoms: _60  and  _61
REMARK   29  A    between atoms: _64  and  _66
REMARK   30  A    between atoms: _66  and  _67
REMARK   31  A    between atoms: _66  and  _69
REMARK   32  A    between atoms: _69  and  _70
REMARK   33  A    between atoms: _70  and  _71
REMARK   34  A    between atoms: _71  and  _72
REMARK   35  A    between atoms: _72  and  _73
REMARK   36  A    between atoms: _77  and  _79
REMARK   37  A    between atoms: _79  and  _80
REMARK   38  A    between atoms: _79  and  _82
REMARK   39  A    between atoms: _82  and  _83
REMARK   40  A    between atoms: _88  and  _89
REMARK   41  A    between atoms: _91  and  _93
REMARK   42  A    between atoms: _93  and  _94
REMARK   43  A    between atoms: _93  and  _96
REMARK   44  A    between atoms: _96  and  _97
REMARK   45  A    between atoms: _102  and  _104
REMARK   46  A    between atoms: _104  and  _105
REMARK   47  A    between atoms: _104  and  _107
REMARK   48  A    between atoms: _111  and  _112
REMARK   49  A    between atoms: _117  and  _119
REMARK   50  A    between atoms: _119  and  _120
REMARK   51  A    between atoms: _119  and  _122
REMARK   52  A    between atoms: _122  and  _123
REMARK   53  A    between atoms: _129  and  _131
REMARK   54  A    between atoms: _131  and  _132
REMARK   55  A    between atoms: _134  and  _136
REMARK   56  A    between atoms: _136  and  _137
REMARK   57  A    between atoms: _136  and  _139
REMARK   58  A    between atoms: _139  and  _140
REMARK   59  A    between atoms: _140  and  _141
REMARK   60  A    between atoms: _144  and  _146
REMARK   61  A    between atoms: _146  and  _147
REMARK   62  A    between atoms: _150  and  _152
REMARK   63  A    between atoms: _152  and  _153
REMARK   64  A    between atoms: _152  and  _155
REMARK   65  A    between atoms: _155  and  _156
REMARK   66  A    between atoms: _161  and  _163
REMARK   67  A    between atoms: _163  and  _164
REMARK   68  A    between atoms: _167  and  _169
REMARK   69  A    between atoms: _169  and  _170
REMARK   70  A    between atoms: _169  and  _172
REMARK   71  A    between atoms: _172  and  _173
REMARK   72  A    between atoms: _173  and  _174
REMARK   73  A    between atoms: _174  and  _175
REMARK   74  A    between atoms: _175  and  _176
REMARK   75  A    between atoms: _180  and  _182
REMARK   76  A    between atoms: _182  and  _183
REMARK   77  A    between atoms: _182  and  _185
REMARK   78  A    between atoms: _185  and  _186
REMARK   79  A    between atoms: _186  and  _187
REMARK   80  A    between atoms: _187  and  _188
REMARK   81  A    between atoms: _188  and  _189
REMARK   82  A    between atoms: _193  and  _195
REMARK   83  A    between atoms: _195  and  _196
REMARK   84  A    between atoms: _195  and  _198
REMARK   85  A    between atoms: _198  and  _199
REMARK   86  A    between atoms: _199  and  _200
REMARK   87  A    between atoms: _200  and  _201
REMARK   88  A    between atoms: _210  and  _212
REMARK   89  A    between atoms: _212  and  _213
REMARK   90  A    between atoms: _212  and  _215
REMARK   91  A    between atoms: _215  and  _216
REMARK   92  A    between atoms: _216  and  _217
REMARK   93  A    between atoms: _220  and  _222
REMARK   94  A    between atoms: _222  and  _223
REMARK   95  A    between atoms: _222  and  _225
REMARK   96  A    between atoms: _228  and  _230
REMARK   97  A    between atoms: _230  and  _231
REMARK   98  A    between atoms: _234  and  _236
REMARK   99  A    between atoms: _236  and  _237
REMARK  100  A    between atoms: _236  and  _239
REMARK  101  A    between atoms: _239  and  _240
REMARK  102  A    between atoms: _250  and  _252
REMARK  103  A    between atoms: _252  and  _253
REMARK  104  A    between atoms: _252  and  _255
REMARK  105  A    between atoms: _258  and  _260
REMARK  106  A    between atoms: _260  and  _261
REMARK  107  A    between atoms: _260  and  _263
REMARK  108  A    between atoms: _263  and  _264
REMARK  109  A    between atoms: _267  and  _269
REMARK  110  A    between atoms: _269  and  _270
REMARK  111  A    between atoms: _269  and  _272
REMARK  112  A    between atoms: _272  and  _273
REMARK  113  A    between atoms: _279  and  _281
REMARK  114  A    between atoms: _281  and  _282
REMARK  115  A    between atoms: _281  and  _284
REMARK  116  A    between atoms: _284  and  _285
REMARK  117  A    between atoms: _285  and  _286
REMARK  118  A    between atoms: _291  and  _293
REMARK  119  A    between atoms: _293  and  _294
REMARK  120  A    between atoms: _293  and  _296
REMARK  121  A    between atoms: _299  and  _301
REMARK  122  A    between atoms: _301  and  _302
REMARK  123  A    between atoms: _301  and  _304
REMARK  124  A    between atoms: _304  and  _305
REMARK  125  A    between atoms: _308  and  _310
REMARK  126  A    between atoms: _310  and  _311
REMARK  127  A    between atoms: _310  and  _313
REMARK  128  A    between atoms: _313  and  _314
REMARK  129  A    between atoms: _317  and  _319
REMARK  130  A    between atoms: _319  and  _320
REMARK  131  A    between atoms: _319  and  _322
REMARK  132  A    between atoms: _322  and  _323
REMARK  133  A    between atoms: _326  and  _328
REMARK  134  A    between atoms: _328  and  _329
REMARK  135  A    between atoms: _328  and  _331
REMARK  136  A    between atoms: _331  and  _332
REMARK  137  A    between atoms: _335  and  _337
REMARK  138  A    between atoms: _337  and  _338
REMARK  139  A    between atoms: _337  and  _340
REMARK  140  A    between atoms: _340  and  _341
REMARK  141  A    between atoms: _341  and  _342
REMARK  142  A    between atoms: _342  and  _343
REMARK  143  A    between atoms: _352  and  _354
REMARK  144  A    between atoms: _354  and  _355
REMARK  145  A    between atoms: _354  and  _357
REMARK  146  A    between atoms: _357  and  _358
REMARK  147  A    between atoms: _361  and  _363
REMARK  148  A    between atoms: _363  and  _364
REMARK  149  A    between atoms: _363  and  _366
REMARK  150  A    between atoms: _366  and  _367
REMARK  151  A    between atoms: _371  and  _372
REMARK  152  A    between atoms: _377  and  _379
REMARK  153  A    between atoms: _379  and  _380
REMARK  154  A    between atoms: _379  and  _382
REMARK  155  A    between atoms: _382  and  _383
REMARK  156  A    between atoms: _388  and  _389
REMARK  157  A    between atoms: _391  and  _393
REMARK  158  A    between atoms: _393  and  _394
REMARK  159  A    between atoms: _393  and  _396
REMARK  160  A    between atoms: _396  and  _397
REMARK  161  A    between atoms: _407  and  _409
REMARK  162  A    between atoms: _409  and  _410
REMARK  163  A    between atoms: _409  and  _412
REMARK  164  A    between atoms: _412  and  _413
REMARK  165  A    between atoms: _419  and  _421
REMARK  166  A    between atoms: _421  and  _422
REMARK  167  A    between atoms: _421  and  _424
REMARK  168  A    between atoms: _424  and  _425
REMARK  169  A    between atoms: _428  and  _430
REMARK  170  A    between atoms: _430  and  _431
REMARK  171  A    between atoms: _430  and  _433
REMARK  172  A    between atoms: _433  and  _434
REMARK  173  A    between atoms: _444  and  _446
REMARK  174  A    between atoms: _446  and  _447
REMARK  175  A    between atoms: _446  and  _449
REMARK  176  A    between atoms: _449  and  _450
REMARK  177  A    between atoms: _450  and  _451
REMARK  178  A    between atoms: _453  and  _455
REMARK  179  A    between atoms: _455  and  _456
REMARK  180  A    between atoms: _455  and  _458
REMARK  181  A    between atoms: _458  and  _459
REMARK  182  A    between atoms: _464  and  _466
REMARK  183  A    between atoms: _466  and  _467
REMARK  184  A    between atoms: _470  and  _471
REMARK  185  A    between atoms: _476  and  _478
REMARK  186  A    between atoms: _478  and  _479
REMARK  187  A    between atoms: _478  and  _481
REMARK  188  A    between atoms: _481  and  _482
REMARK  189  A    between atoms: _492  and  _494
REMARK  190  A    between atoms: _494  and  _495
REMARK  191  A    between atoms: _499  and  _500
REMARK  192  A    between atoms: _505  and  _507
REMARK  193  A    between atoms: _507  and  _508
REMARK  194  A    between atoms: _507  and  _510
REMARK  195  A    between atoms: _510  and  _511
REMARK  196  A    between atoms: _511  and  _512
REMARK  197  A    between atoms: _517  and  _519
REMARK  198  A    between atoms: _519  and  _520
REMARK  199  A    between atoms: _522  and  _524
REMARK  200  A    between atoms: _524  and  _525
REMARK  201  A    between atoms: _527  and  _529
REMARK  202  A    between atoms: _529  and  _530
REMARK  203  A    between atoms: _529  and  _532
REMARK  204  A    between atoms: _532  and  _533
REMARK  205  A    between atoms: _543  and  _545
REMARK  206  A    between atoms: _545  and  _546
REMARK  207  A    between atoms: _545  and  _548
REMARK  208  A    between atoms: _548  and  _549
REMARK  209  A    between atoms: _552  and  _554
REMARK  210  A    between atoms: _554  and  _555
REMARK  211  A    between atoms: _554  and  _557
REMARK  212  A    between atoms: _557  and  _558
REMARK  213  A    between atoms: _561  and  _563
REMARK  214  A    between atoms: _563  and  _564
REMARK  215  A    between atoms: _563  and  _566
REMARK  216  A    between atoms: _566  and  _567
REMARK  217  A    between atoms: _567  and  _568
REMARK  218  A    between atoms: _568  and  _569
REMARK  219  A    between atoms: _578  and  _580
REMARK  220  A    between atoms: _580  and  _581
REMARK  221  A    between atoms: _580  and  _583
REMARK  222  A    between atoms: _583  and  _584
REMARK  223  A    between atoms: _594  and  _596
REMARK  224  A    between atoms: _596  and  _597
REMARK  225  A    between atoms: _599  and  _601
REMARK  226  A    between atoms: _601  and  _602
REMARK  227  A    between atoms: _601  and  _604
REMARK  228  A    between atoms: _604  and  _605
REMARK  229  A    between atoms: _610  and  _612
REMARK  230  A    between atoms: _612  and  _613
REMARK  231  A    between atoms: _616  and  _618
REMARK  232  A    between atoms: _618  and  _619
REMARK  233  A    between atoms: _618  and  _621
REMARK  234  A    between atoms: _621  and  _622
REMARK  235  A    between atoms: _625  and  _627
REMARK  236  A    between atoms: _627  and  _628
REMARK  237  A    between atoms: _627  and  _630
REMARK  238  A    between atoms: _630  and  _631
REMARK  239  A    between atoms: _637  and  _639
REMARK  240  A    between atoms: _639  and  _640
REMARK  241  A    between atoms: _639  and  _642
REMARK  242  A    between atoms: _642  and  _643
REMARK  243  A    between atoms: _643  and  _644
REMARK  244  A    between atoms: _647  and  _649
REMARK  245  A    between atoms: _649  and  _650
REMARK  246  A    between atoms: _649  and  _652
REMARK  247  A    between atoms: _652  and  _653
REMARK  248  A    between atoms: _653  and  _654
REMARK  249  A    between atoms: _654  and  _655
REMARK                            x       y       z     vdW  Elec       q    Type
REMARK                         _______ _______ _______ _____ _____    ______ ____
ROOT
ATOM      1  O   HOH     1     -13.043 -12.353  19.552  0.00  0.00    +0.000 OA
ENDROOT
TORSDOF 0
REMARK  Name = ../refined-set-2016/3jzj/3jzj_pocket.pdb
REMARK  249 active torsions:
REMARK  status: ('A' for Active; 'I' for Inactive)
REMARK    1  A    between atoms: _1  and  _3
REMARK    2  A    between atoms: _3  and  _4
REMARK    3  A    between atoms: _3  and  _6
REMARK    4  A    between atoms: _6  and  _7
REMARK    5  A    between atoms: _10  and  _12
REMARK    6  A    between atoms: _12  and  _13
REMARK    7  A    between atoms: _12  and  _15
REMARK    8  A    between atoms: _15  and  _16
REMARK    9  A    between atoms: _19  and  _21
REMARK   10  A    between atoms: _21  and  _22
REMARK   11  A    between atoms: _21  and  _24
REMARK   12  A    between atoms: _24  and  _25
REMARK   13  A    between atoms: _27  and  _29
REMARK   14  A    between atoms: _29  and  _30
REMARK   15  A    between atoms: _29  and  _32
REMARK   16  A    between atoms: _32  and  _33
REMARK   17  A    between atoms: _38  and  _40
REMARK   18  A    between atoms: _40  and  _41
REMARK   19  A    between atoms: _40  and  _43
REMARK   20  A    between atoms: _43  and  _44
REMARK   21  A    between atoms: _44  and  _45
REMARK   22  A    between atoms: _48  and  _50
REMARK   23  A    between atoms: _50  and  _51
REMARK   24  A    between atoms: _54  and  _56
REMARK   25  A    between atoms: _56  and  _57
REMARK   26  A    between atoms: _56  and  _59
REMARK   27  A    between atoms: _59  and  _60
REMARK   28  A    between atoms: _60  and  _61
REMARK   29  A    between atoms: _64  and  _66
REMARK   30  A    between atoms: _66  and  _67
REMARK   31  A    between atoms: _66  and  _69
REMARK   32  A    between atoms: _69  and  _70
REMARK   33  A    between atoms: _70  and  _71
REMARK   34  A    between atoms: _71  and  _72
REMARK   35  A    between atoms: _72  and  _73
REMARK   36  A    between atoms: _77  and  _79
REMARK   37  A    between atoms: _79  and  _80
REMARK   38  A    between atoms: _79  and  _82
REMARK   39  A    between atoms: _82  and  _83
REMARK   40  A    between atoms: _88  and  _89
REMARK   41  A    between atoms: _91  and  _93
REMARK   42  A    between atoms: _93  and  _94
REMARK   43  A    between atoms: _93  and  _96
REMARK   44  A    between atoms: _96  and  _97
REMARK   45  A    between atoms: _102  and  _104
REMARK   46  A    between atoms: _104  and  _105
REMARK   47  A    between atoms: _104  and  _107
REMARK   48  A    between atoms: _111  and  _112
REMARK   49  A    between atoms: _117  and  _119
REMARK   50  A    between atoms: _119  and  _120
REMARK   51  A    between atoms: _119  and  _122
REMARK   52  A    between atoms: _122  and  _123
REMARK   53  A    between atoms: _129  and  _131
REMARK   54  A    between atoms: _131  and  _132
REMARK   55  A    between atoms: _134  and  _136
REMARK   56  A    between atoms: _136  and  _137
REMARK   57  A    between atoms: _136  and  _139
REMARK   58  A    between atoms: _139  and  _140
REMARK   59  A    between atoms: _140  and  _141
REMARK   60  A    between atoms: _144  and  _146
REMARK   61  A    between atoms: _146  and  _147
REMARK   62  A    between atoms: _150  and  _152
REMARK   63  A    between atoms: _152  and  _153
REMARK   64  A    between atoms: _152  and  _155
REMARK   65  A    between atoms: _155  and  _156
REMARK   66  A    between atoms: _161  and  _163
REMARK   67  A    between atoms: _163  and  _164
REMARK   68  A    between atoms: _167  and  _169
REMARK   69  A    between atoms: _169  and  _170
REMARK   70  A    between atoms: _169  and  _172
REMARK   71  A    between atoms: _172  and  _173
REMARK   72  A    between atoms: _173  and  _174
REMARK   73  A    between atoms: _174  and  _175
REMARK   74  A    between atoms: _175  and  _176
REMARK   75  A    between atoms: _180  and  _182
REMARK   76  A    between atoms: _182  and  _183
REMARK   77  A    between atoms: _182  and  _185
REMARK   78  A    between atoms: _185  and  _186
REMARK   79  A    between atoms: _186  and  _187
REMARK   80  A    between atoms: _187  and  _188
REMARK   81  A    between atoms: _188  and  _189
REMARK   82  A    between atoms: _193  and  _195
REMARK   83  A    between atoms: _195  and  _196
REMARK   84  A    between atoms: _195  and  _198
REMARK   85  A    between atoms: _198  and  _199
REMARK   86  A    between atoms: _199  and  _200
REMARK   87  A    between atoms: _200  and  _201
REMARK   88  A    between atoms: _210  and  _212
REMARK   89  A    between atoms: _212  and  _213
REMARK   90  A    between atoms: _212  and  _215
REMARK   91  A    between atoms: _215  and  _216
REMARK   92  A    between atoms: _216  and  _217
REMARK   93  A    between atoms: _220  and  _222
REMARK   94  A    between atoms: _222  and  _223
REMARK   95  A    between atoms: _222  and  _225
REMARK   96  A    between atoms: _228  and  _230
REMARK   97  A    between atoms: _230  and  _231
REMARK   98  A    between atoms: _234  and  _236
REMARK   99  A    between atoms: _236  and  _237
REMARK  100  A    between atoms: _236  and  _239
REMARK  101  A    between atoms: _239  and  _240
REMARK  102  A    between atoms: _250  and  _252
REMARK  103  A    between atoms: _252  and  _253
REMARK  104  A    between atoms: _252  and  _255
REMARK  105  A    between atoms: _258  and  _260
REMARK  106  A    between atoms: _260  and  _261
REMARK  107  A    between atoms: _260  and  _263
REMARK  108  A    between atoms: _263  and  _264
REMARK  109  A    between atoms: _267  and  _269
REMARK  110  A    between atoms: _269  and  _270
REMARK  111  A    between atoms: _269  and  _272
REMARK  112  A    between atoms: _272  and  _273
REMARK  113  A    between atoms: _279  and  _281
REMARK  114  A    between atoms: _281  and  _282
REMARK  115  A    between atoms: _281  and  _284
REMARK  116  A    between atoms: _284  and  _285
REMARK  117  A    between atoms: _285  and  _286
REMARK  118  A    between atoms: _291  and  _293
REMARK  119  A    between atoms: _293  and  _294
REMARK  120  A    between atoms: _293  and  _296
REMARK  121  A    between atoms: _299  and  _301
REMARK  122  A    between atoms: _301  and  _302
REMARK  123  A    between atoms: _301  and  _304
REMARK  124  A    between atoms: _304  and  _305
REMARK  125  A    between atoms: _308  and  _310
REMARK  126  A    between atoms: _310  and  _311
REMARK  127  A    between atoms: _310  and  _313
REMARK  128  A    between atoms: _313  and  _314
REMARK  129  A    between atoms: _317  and  _319
REMARK  130  A    between atoms: _319  and  _320
REMARK  131  A    between atoms: _319  and  _322
REMARK  132  A    between atoms: _322  and  _323
REMARK  133  A    between atoms: _326  and  _328
REMARK  134  A    between atoms: _328  and  _329
REMARK  135  A    between atoms: _328  and  _331
REMARK  136  A    between atoms: _331  and  _332
REMARK  137  A    between atoms: _335  and  _337
REMARK  138  A    between atoms: _337  and  _338
REMARK  139  A    between atoms: _337  and  _340
REMARK  140  A    between atoms: _340  and  _341
REMARK  141  A    between atoms: _341  and  _342
REMARK  142  A    between atoms: _342  and  _343
REMARK  143  A    between atoms: _352  and  _354
REMARK  144  A    between atoms: _354  and  _355
REMARK  145  A    between atoms: _354  and  _357
REMARK  146  A    between atoms: _357  and  _358
REMARK  147  A    between atoms: _361  and  _363
REMARK  148  A    between atoms: _363  and  _364
REMARK  149  A    between atoms: _363  and  _366
REMARK  150  A    between atoms: _366  and  _367
REMARK  151  A    between atoms: _371  and  _372
REMARK  152  A    between atoms: _377  and  _379
REMARK  153  A    between atoms: _379  and  _380
REMARK  154  A    between atoms: _379  and  _382
REMARK  155  A    between atoms: _382  and  _383
REMARK  156  A    between atoms: _388  and  _389
REMARK  157  A    between atoms: _391  and  _393
REMARK  158  A    between atoms: _393  and  _394
REMARK  159  A    between atoms: _393  and  _396
REMARK  160  A    between atoms: _396  and  _397
REMARK  161  A    between atoms: _407  and  _409
REMARK  162  A    between atoms: _409  and  _410
REMARK  163  A    between atoms: _409  and  _412
REMARK  164  A    between atoms: _412  and  _413
REMARK  165  A    between atoms: _419  and  _421
REMARK  166  A    between atoms: _421  and  _422
REMARK  167  A    between atoms: _421  and  _424
REMARK  168  A    between atoms: _424  and  _425
REMARK  169  A    between atoms: _428  and  _430
REMARK  170  A    between atoms: _430  and  _431
REMARK  171  A    between atoms: _430  and  _433
REMARK  172  A    between atoms: _433  and  _434
REMARK  173  A    between atoms: _444  and  _446
REMARK  174  A    between atoms: _446  and  _447
REMARK  175  A    between atoms: _446  and  _449
REMARK  176  A    between atoms: _449  and  _450
REMARK  177  A    between atoms: _450  and  _451
REMARK  178  A    between atoms: _453  and  _455
REMARK  179  A    between atoms: _455  and  _456
REMARK  180  A    between atoms: _455  and  _458
REMARK  181  A    between atoms: _458  and  _459
REMARK  182  A    between atoms: _464  and  _466
REMARK  183  A    between atoms: _466  and  _467
REMARK  184  A    between atoms: _470  and  _471
REMARK  185  A    between atoms: _476  and  _478
REMARK  186  A    between atoms: _478  and  _479
REMARK  187  A    between atoms: _478  and  _481
REMARK  188  A    between atoms: _481  and  _482
REMARK  189  A    between atoms: _492  and  _494
REMARK  190  A    between atoms: _494  and  _495
REMARK  191  A    between atoms: _499  and  _500
REMARK  192  A    between atoms: _505  and  _507
REMARK  193  A    between atoms: _507  and  _508
REMARK  194  A    between atoms: _507  and  _510
REMARK  195  A    between atoms: _510  and  _511
REMARK  196  A    between atoms: _511  and  _512
REMARK  197  A    between atoms: _517  and  _519
REMARK  198  A    between atoms: _519  and  _520
REMARK  199  A    between atoms: _522  and  _524
REMARK  200  A    between atoms: _524  and  _525
REMARK  201  A    between atoms: _527  and  _529
REMARK  202  A    between atoms: _529  and  _530
REMARK  203  A    between atoms: _529  and  _532
REMARK  204  A    between atoms: _532  and  _533
REMARK  205  A    between atoms: _543  and  _545
REMARK  206  A    between atoms: _545  and  _546
REMARK  207  A    between atoms: _545  and  _548
REMARK  208  A    between atoms: _548  and  _549
REMARK  209  A    between atoms: _552  and  _554
REMARK  210  A    between atoms: _554  and  _555
REMARK  211  A    between atoms: _554  and  _557
REMARK  212  A    between atoms: _557  and  _558
REMARK  213  A    between atoms: _561  and  _563
REMARK  214  A    between atoms: _563  and  _564
REMARK  215  A    between atoms: _563  and  _566
REMARK  216  A    between atoms: _566  and  _567
REMARK  217  A    between atoms: _567  and  _568
REMARK  218  A    between atoms: _568  and  _569
REMARK  219  A    between atoms: _578  and  _580
REMARK  220  A    between atoms: _580  and  _581
REMARK  221  A    between atoms: _580  and  _583
REMARK  222  A    between atoms: _583  and  _584
REMARK  223  A    between atoms: _594  and  _596
REMARK  224  A    between atoms: _596  and  _597
REMARK  225  A    between atoms: _599  and  _601
REMARK  226  A    between atoms: _601  and  _602
REMARK  227  A    between atoms: _601  and  _604
REMARK  228  A    between atoms: _604  and  _605
REMARK  229  A    between atoms: _610  and  _612
REMARK  230  A    between atoms: _612  and  _613
REMARK  231  A    between atoms: _616  and  _618
REMARK  232  A    between atoms: _618  and  _619
REMARK  233  A    between atoms: _618  and  _621
REMARK  234  A    between atoms: _621  and  _622
REMARK  235  A    between atoms: _625  and  _627
REMARK  236  A    between atoms: _627  and  _628
REMARK  237  A    between atoms: _627  and  _630
REMARK  238  A    between atoms: _630  and  _631
REMARK  239  A    between atoms: _637  and  _639
REMARK  240  A    between atoms: _639  and  _640
REMARK  241  A    between atoms: _639  and  _642
REMARK  242  A    between atoms: _642  and  _643
REMARK  243  A    between atoms: _643  and  _644
REMARK  244  A    between atoms: _647  and  _649
REMARK  245  A    between atoms: _649  and  _650
REMARK  246  A    between atoms: _649  and  _652
REMARK  247  A    between atoms: _652  and  _653
REMARK  248  A    between atoms: _653  and  _654
REMARK  249  A    between atoms: _654  and  _655
REMARK                            x       y       z     vdW  Elec       q    Type
REMARK                         _______ _______ _______ _____ _____    ______ ____
ROOT
ATOM      1  O   HOH     1     -10.103  -4.950  18.185  0.00  0.00    +0.000 OA
ENDROOT
TORSDOF 0
REMARK  Name = ../refined-set-2016/3jzj/3jzj_pocket.pdb
REMARK  249 active torsions:
REMARK  status: ('A' for Active; 'I' for Inactive)
REMARK    1  A    between atoms: _1  and  _3
REMARK    2  A    between atoms: _3  and  _4
REMARK    3  A    between atoms: _3  and  _6
REMARK    4  A    between atoms: _6  and  _7
REMARK    5  A    between atoms: _10  and  _12
REMARK    6  A    between atoms: _12  and  _13
REMARK    7  A    between atoms: _12  and  _15
REMARK    8  A    between atoms: _15  and  _16
REMARK    9  A    between atoms: _19  and  _21
REMARK   10  A    between atoms: _21  and  _22
REMARK   11  A    between atoms: _21  and  _24
REMARK   12  A    between atoms: _24  and  _25
REMARK   13  A    between atoms: _27  and  _29
REMARK   14  A    between atoms: _29  and  _30
REMARK   15  A    between atoms: _29  and  _32
REMARK   16  A    between atoms: _32  and  _33
REMARK   17  A    between atoms: _38  and  _40
REMARK   18  A    between atoms: _40  and  _41
REMARK   19  A    between atoms: _40  and  _43
REMARK   20  A    between atoms: _43  and  _44
REMARK   21  A    between atoms: _44  and  _45
REMARK   22  A    between atoms: _48  and  _50
REMARK   23  A    between atoms: _50  and  _51
REMARK   24  A    between atoms: _54  and  _56
REMARK   25  A    between atoms: _56  and  _57
REMARK   26  A    between atoms: _56  and  _59
REMARK   27  A    between atoms: _59  and  _60
REMARK   28  A    between atoms: _60  and  _61
REMARK   29  A    between atoms: _64  and  _66
REMARK   30  A    between atoms: _66  and  _67
REMARK   31  A    between atoms: _66  and  _69
REMARK   32  A    between atoms: _69  and  _70
REMARK   33  A    between atoms: _70  and  _71
REMARK   34  A    between atoms: _71  and  _72
REMARK   35  A    between atoms: _72  and  _73
REMARK   36  A    between atoms: _77  and  _79
REMARK   37  A    between atoms: _79  and  _80
REMARK   38  A    between atoms: _79  and  _82
REMARK   39  A    between atoms: _82  and  _83
REMARK   40  A    between atoms: _88  and  _89
REMARK   41  A    between atoms: _91  and  _93
REMARK   42  A    between atoms: _93  and  _94
REMARK   43  A    between atoms: _93  and  _96
REMARK   44  A    between atoms: _96  and  _97
REMARK   45  A    between atoms: _102  and  _104
REMARK   46  A    between atoms: _104  and  _105
REMARK   47  A    between atoms: _104  and  _107
REMARK   48  A    between atoms: _111  and  _112
REMARK   49  A    between atoms: _117  and  _119
REMARK   50  A    between atoms: _119  and  _120
REMARK   51  A    between atoms: _119  and  _122
REMARK   52  A    between atoms: _122  and  _123
REMARK   53  A    between atoms: _129  and  _131
REMARK   54  A    between atoms: _131  and  _132
REMARK   55  A    between atoms: _134  and  _136
REMARK   56  A    between atoms: _136  and  _137
REMARK   57  A    between atoms: _136  and  _139
REMARK   58  A    between atoms: _139  and  _140
REMARK   59  A    between atoms: _140  and  _141
REMARK   60  A    between atoms: _144  and  _146
REMARK   61  A    between atoms: _146  and  _147
REMARK   62  A    between atoms: _150  and  _152
REMARK   63  A    between atoms: _152  and  _153
REMARK   64  A    between atoms: _152  and  _155
REMARK   65  A    between atoms: _155  and  _156
REMARK   66  A    between atoms: _161  and  _163
REMARK   67  A    between atoms: _163  and  _164
REMARK   68  A    between atoms: _167  and  _169
REMARK   69  A    between atoms: _169  and  _170
REMARK   70  A    between atoms: _169  and  _172
REMARK   71  A    between atoms: _172  and  _173
REMARK   72  A    between atoms: _173  and  _174
REMARK   73  A    between atoms: _174  and  _175
REMARK   74  A    between atoms: _175  and  _176
REMARK   75  A    between atoms: _180  and  _182
REMARK   76  A    between atoms: _182  and  _183
REMARK   77  A    between atoms: _182  and  _185
REMARK   78  A    between atoms: _185  and  _186
REMARK   79  A    between atoms: _186  and  _187
REMARK   80  A    between atoms: _187  and  _188
REMARK   81  A    between atoms: _188  and  _189
REMARK   82  A    between atoms: _193  and  _195
REMARK   83  A    between atoms: _195  and  _196
REMARK   84  A    between atoms: _195  and  _198
REMARK   85  A    between atoms: _198  and  _199
REMARK   86  A    between atoms: _199  and  _200
REMARK   87  A    between atoms: _200  and  _201
REMARK   88  A    between atoms: _210  and  _212
REMARK   89  A    between atoms: _212  and  _213
REMARK   90  A    between atoms: _212  and  _215
REMARK   91  A    between atoms: _215  and  _216
REMARK   92  A    between atoms: _216  and  _217
REMARK   93  A    between atoms: _220  and  _222
REMARK   94  A    between atoms: _222  and  _223
REMARK   95  A    between atoms: _222  and  _225
REMARK   96  A    between atoms: _228  and  _230
REMARK   97  A    between atoms: _230  and  _231
REMARK   98  A    between atoms: _234  and  _236
REMARK   99  A    between atoms: _236  and  _237
REMARK  100  A    between atoms: _236  and  _239
REMARK  101  A    between atoms: _239  and  _240
REMARK  102  A    between atoms: _250  and  _252
REMARK  103  A    between atoms: _252  and  _253
REMARK  104  A    between atoms: _252  and  _255
REMARK  105  A    between atoms: _258  and  _260
REMARK  106  A    between atoms: _260  and  _261
REMARK  107  A    between atoms: _260  and  _263
REMARK  108  A    between atoms: _263  and  _264
REMARK  109  A    between atoms: _267  and  _269
REMARK  110  A    between atoms: _269  and  _270
REMARK  111  A    between atoms: _269  and  _272
REMARK  112  A    between atoms: _272  and  _273
REMARK  113  A    between atoms: _279  and  _281
REMARK  114  A    between atoms: _281  and  _282
REMARK  115  A    between atoms: _281  and  _284
REMARK  116  A    between atoms: _284  and  _285
REMARK  117  A    between atoms: _285  and  _286
REMARK  118  A    between atoms: _291  and  _293
REMARK  119  A    between atoms: _293  and  _294
REMARK  120  A    between atoms: _293  and  _296
REMARK  121  A    between atoms: _299  and  _301
REMARK  122  A    between atoms: _301  and  _302
REMARK  123  A    between atoms: _301  and  _304
REMARK  124  A    between atoms: _304  and  _305
REMARK  125  A    between atoms: _308  and  _310
REMARK  126  A    between atoms: _310  and  _311
REMARK  127  A    between atoms: _310  and  _313
REMARK  128  A    between atoms: _313  and  _314
REMARK  129  A    between atoms: _317  and  _319
REMARK  130  A    between atoms: _319  and  _320
REMARK  131  A    between atoms: _319  and  _322
REMARK  132  A    between atoms: _322  and  _323
REMARK  133  A    between atoms: _326  and  _328
REMARK  134  A    between atoms: _328  and  _329
REMARK  135  A    between atoms: _328  and  _331
REMARK  136  A    between atoms: _331  and  _332
REMARK  137  A    between atoms: _335  and  _337
REMARK  138  A    between atoms: _337  and  _338
REMARK  139  A    between atoms: _337  and  _340
REMARK  140  A    between atoms: _340  and  _341
REMARK  141  A    between atoms: _341  and  _342
REMARK  142  A    between atoms: _342  and  _343
REMARK  143  A    between atoms: _352  and  _354
REMARK  144  A    between atoms: _354  and  _355
REMARK  145  A    between atoms: _354  and  _357
REMARK  146  A    between atoms: _357  and  _358
REMARK  147  A    between atoms: _361  and  _363
REMARK  148  A    between atoms: _363  and  _364
REMARK  149  A    between atoms: _363  and  _366
REMARK  150  A    between atoms: _366  and  _367
REMARK  151  A    between atoms: _371  and  _372
REMARK  152  A    between atoms: _377  and  _379
REMARK  153  A    between atoms: _379  and  _380
REMARK  154  A    between atoms: _379  and  _382
REMARK  155  A    between atoms: _382  and  _383
REMARK  156  A    between atoms: _388  and  _389
REMARK  157  A    between atoms: _391  and  _393
REMARK  158  A    between atoms: _393  and  _394
REMARK  159  A    between atoms: _393  and  _396
REMARK  160  A    between atoms: _396  and  _397
REMARK  161  A    between atoms: _407  and  _409
REMARK  162  A    between atoms: _409  and  _410
REMARK  163  A    between atoms: _409  and  _412
REMARK  164  A    between atoms: _412  and  _413
REMARK  165  A    between atoms: _419  and  _421
REMARK  166  A    between atoms: _421  and  _422
REMARK  167  A    between atoms: _421  and  _424
REMARK  168  A    between atoms: _424  and  _425
REMARK  169  A    between atoms: _428  and  _430
REMARK  170  A    between atoms: _430  and  _431
REMARK  171  A    between atoms: _430  and  _433
REMARK  172  A    between atoms: _433  and  _434
REMARK  173  A    between atoms: _444  and  _446
REMARK  174  A    between atoms: _446  and  _447
REMARK  175  A    between atoms: _446  and  _449
REMARK  176  A    between atoms: _449  and  _450
REMARK  177  A    between atoms: _450  and  _451
REMARK  178  A    between atoms: _453  and  _455
REMARK  179  A    between atoms: _455  and  _456
REMARK  180  A    between atoms: _455  and  _458
REMARK  181  A    between atoms: _458  and  _459
REMARK  182  A    between atoms: _464  and  _466
REMARK  183  A    between atoms: _466  and  _467
REMARK  184  A    between atoms: _470  and  _471
REMARK  185  A    between atoms: _476  and  _478
REMARK  186  A    between atoms: _478  and  _479
REMARK  187  A    between atoms: _478  and  _481
REMARK  188  A    between atoms: _481  and  _482
REMARK  189  A    between atoms: _492  and  _494
REMARK  190  A    between atoms: _494  and  _495
REMARK  191  A    between atoms: _499  and  _500
REMARK  192  A    between atoms: _505  and  _507
REMARK  193  A    between atoms: _507  and  _508
REMARK  194  A    between atoms: _507  and  _510
REMARK  195  A    between atoms: _510  and  _511
REMARK  196  A    between atoms: _511  and  _512
REMARK  197  A    between atoms: _517  and  _519
REMARK  198  A    between atoms: _519  and  _520
REMARK  199  A    between atoms: _522  and  _524
REMARK  200  A    between atoms: _524  and  _525
REMARK  201  A    between atoms: _527  and  _529
REMARK  202  A    between atoms: _529  and  _530
REMARK  203  A    between atoms: _529  and  _532
REMARK  204  A    between atoms: _532  and  _533
REMARK  205  A    between atoms: _543  and  _545
REMARK  206  A    between atoms: _545  and  _546
REMARK  207  A    between atoms: _545  and  _548
REMARK  208  A    between atoms: _548  and  _549
REMARK  209  A    between atoms: _552  and  _554
REMARK  210  A    between atoms: _554  and  _555
REMARK  211  A    between atoms: _554  and  _557
REMARK  212  A    between atoms: _557  and  _558
REMARK  213  A    between atoms: _561  and  _563
REMARK  214  A    between atoms: _563  and  _564
REMARK  215  A    between atoms: _563  and  _566
REMARK  216  A    between atoms: _566  and  _567
REMARK  217  A    between atoms: _567  and  _568
REMARK  218  A    between atoms: _568  and  _569
REMARK  219  A    between atoms: _578  and  _580
REMARK  220  A    between atoms: _580  and  _581
REMARK  221  A    between atoms: _580  and  _583
REMARK  222  A    between atoms: _583  and  _584
REMARK  223  A    between atoms: _594  and  _596
REMARK  224  A    between atoms: _596  and  _597
REMARK  225  A    between atoms: _599  and  _601
REMARK  226  A    between atoms: _601  and  _602
REMARK  227  A    between atoms: _601  and  _604
REMARK  228  A    between atoms: _604  and  _605
REMARK  229  A    between atoms: _610  and  _612
REMARK  230  A    between atoms: _612  and  _613
REMARK  231  A    between atoms: _616  and  _618
REMARK  232  A    between atoms: _618  and  _619
REMARK  233  A    between atoms: _618  and  _621
REMARK  234  A    between atoms: _621  and  _622
REMARK  235  A    between atoms: _625  and  _627
REMARK  236  A    between atoms: _627  and  _628
REMARK  237  A    between atoms: _627  and  _630
REMARK  238  A    between atoms: _630  and  _631
REMARK  239  A    between atoms: _637  and  _639
REMARK  240  A    between atoms: _639  and  _640
REMARK  241  A    between atoms: _639  and  _642
REMARK  242  A    between atoms: _642  and  _643
REMARK  243  A    between atoms: _643  and  _644
REMARK  244  A    between atoms: _647  and  _649
REMARK  245  A    between atoms: _649  and  _650
REMARK  246  A    between atoms: _649  and  _652
REMARK  247  A    between atoms: _652  and  _653
REMARK  248  A    between atoms: _653  and  _654
REMARK  249  A    between atoms: _654  and  _655
REMARK                            x       y       z     vdW  Elec       q    Type
REMARK                         _______ _______ _______ _____ _____    ______ ____
ROOT
ATOM      1  O   HOH     1      -6.623 -16.795  16.934  0.00  0.00    +0.000 OA
ENDROOT
TORSDOF 0
REMARK  Name = ../refined-set-2016/3jzj/3jzj_pocket.pdb
REMARK  249 active torsions:
REMARK  status: ('A' for Active; 'I' for Inactive)
REMARK    1  A    between atoms: _1  and  _3
REMARK    2  A    between atoms: _3  and  _4
REMARK    3  A    between atoms: _3  and  _6
REMARK    4  A    between atoms: _6  and  _7
REMARK    5  A    between atoms: _10  and  _12
REMARK    6  A    between atoms: _12  and  _13
REMARK    7  A    between atoms: _12  and  _15
REMARK    8  A    between atoms: _15  and  _16
REMARK    9  A    between atoms: _19  and  _21
REMARK   10  A    between atoms: _21  and  _22
REMARK   11  A    between atoms: _21  and  _24
REMARK   12  A    between atoms: _24  and  _25
REMARK   13  A    between atoms: _27  and  _29
REMARK   14  A    between atoms: _29  and  _30
REMARK   15  A    between atoms: _29  and  _32
REMARK   16  A    between atoms: _32  and  _33
REMARK   17  A    between atoms: _38  and  _40
REMARK   18  A    between atoms: _40  and  _41
REMARK   19  A    between atoms: _40  and  _43
REMARK   20  A    between atoms: _43  and  _44
REMARK   21  A    between atoms: _44  and  _45
REMARK   22  A    between atoms: _48  and  _50
REMARK   23  A    between atoms: _50  and  _51
REMARK   24  A    between atoms: _54  and  _56
REMARK   25  A    between atoms: _56  and  _57
REMARK   26  A    between atoms: _56  and  _59
REMARK   27  A    between atoms: _59  and  _60
REMARK   28  A    between atoms: _60  and  _61
REMARK   29  A    between atoms: _64  and  _66
REMARK   30  A    between atoms: _66  and  _67
REMARK   31  A    between atoms: _66  and  _69
REMARK   32  A    between atoms: _69  and  _70
REMARK   33  A    between atoms: _70  and  _71
REMARK   34  A    between atoms: _71  and  _72
REMARK   35  A    between atoms: _72  and  _73
REMARK   36  A    between atoms: _77  and  _79
REMARK   37  A    between atoms: _79  and  _80
REMARK   38  A    between atoms: _79  and  _82
REMARK   39  A    between atoms: _82  and  _83
REMARK   40  A    between atoms: _88  and  _89
REMARK   41  A    between atoms: _91  and  _93
REMARK   42  A    between atoms: _93  and  _94
REMARK   43  A    between atoms: _93  and  _96
REMARK   44  A    between atoms: _96  and  _97
REMARK   45  A    between atoms: _102  and  _104
REMARK   46  A    between atoms: _104  and  _105
REMARK   47  A    between atoms: _104  and  _107
REMARK   48  A    between atoms: _111  and  _112
REMARK   49  A    between atoms: _117  and  _119
REMARK   50  A    between atoms: _119  and  _120
REMARK   51  A    between atoms: _119  and  _122
REMARK   52  A    between atoms: _122  and  _123
REMARK   53  A    between atoms: _129  and  _131
REMARK   54  A    between atoms: _131  and  _132
REMARK   55  A    between atoms: _134  and  _136
REMARK   56  A    between atoms: _136  and  _137
REMARK   57  A    between atoms: _136  and  _139
REMARK   58  A    between atoms: _139  and  _140
REMARK   59  A    between atoms: _140  and  _141
REMARK   60  A    between atoms: _144  and  _146
REMARK   61  A    between atoms: _146  and  _147
REMARK   62  A    between atoms: _150  and  _152
REMARK   63  A    between atoms: _152  and  _153
REMARK   64  A    between atoms: _152  and  _155
REMARK   65  A    between atoms: _155  and  _156
REMARK   66  A    between atoms: _161  and  _163
REMARK   67  A    between atoms: _163  and  _164
REMARK   68  A    between atoms: _167  and  _169
REMARK   69  A    between atoms: _169  and  _170
REMARK   70  A    between atoms: _169  and  _172
REMARK   71  A    between atoms: _172  and  _173
REMARK   72  A    between atoms: _173  and  _174
REMARK   73  A    between atoms: _174  and  _175
REMARK   74  A    between atoms: _175  and  _176
REMARK   75  A    between atoms: _180  and  _182
REMARK   76  A    between atoms: _182  and  _183
REMARK   77  A    between atoms: _182  and  _185
REMARK   78  A    between atoms: _185  and  _186
REMARK   79  A    between atoms: _186  and  _187
REMARK   80  A    between atoms: _187  and  _188
REMARK   81  A    between atoms: _188  and  _189
REMARK   82  A    between atoms: _193  and  _195
REMARK   83  A    between atoms: _195  and  _196
REMARK   84  A    between atoms: _195  and  _198
REMARK   85  A    between atoms: _198  and  _199
REMARK   86  A    between atoms: _199  and  _200
REMARK   87  A    between atoms: _200  and  _201
REMARK   88  A    between atoms: _210  and  _212
REMARK   89  A    between atoms: _212  and  _213
REMARK   90  A    between atoms: _212  and  _215
REMARK   91  A    between atoms: _215  and  _216
REMARK   92  A    between atoms: _216  and  _217
REMARK   93  A    between atoms: _220  and  _222
REMARK   94  A    between atoms: _222  and  _223
REMARK   95  A    between atoms: _222  and  _225
REMARK   96  A    between atoms: _228  and  _230
REMARK   97  A    between atoms: _230  and  _231
REMARK   98  A    between atoms: _234  and  _236
REMARK   99  A    between atoms: _236  and  _237
REMARK  100  A    between atoms: _236  and  _239
REMARK  101  A    between atoms: _239  and  _240
REMARK  102  A    between atoms: _250  and  _252
REMARK  103  A    between atoms: _252  and  _253
REMARK  104  A    between atoms: _252  and  _255
REMARK  105  A    between atoms: _258  and  _260
REMARK  106  A    between atoms: _260  and  _261
REMARK  107  A    between atoms: _260  and  _263
REMARK  108  A    between atoms: _263  and  _264
REMARK  109  A    between atoms: _267  and  _269
REMARK  110  A    between atoms: _269  and  _270
REMARK  111  A    between atoms: _269  and  _272
REMARK  112  A    between atoms: _272  and  _273
REMARK  113  A    between atoms: _279  and  _281
REMARK  114  A    between atoms: _281  and  _282
REMARK  115  A    between atoms: _281  and  _284
REMARK  116  A    between atoms: _284  and  _285
REMARK  117  A    between atoms: _285  and  _286
REMARK  118  A    between atoms: _291  and  _293
REMARK  119  A    between atoms: _293  and  _294
REMARK  120  A    between atoms: _293  and  _296
REMARK  121  A    between atoms: _299  and  _301
REMARK  122  A    between atoms: _301  and  _302
REMARK  123  A    between atoms: _301  and  _304
REMARK  124  A    between atoms: _304  and  _305
REMARK  125  A    between atoms: _308  and  _310
REMARK  126  A    between atoms: _310  and  _311
REMARK  127  A    between atoms: _310  and  _313
REMARK  128  A    between atoms: _313  and  _314
REMARK  129  A    between atoms: _317  and  _319
REMARK  130  A    between atoms: _319  and  _320
REMARK  131  A    between atoms: _319  and  _322
REMARK  132  A    between atoms: _322  and  _323
REMARK  133  A    between atoms: _326  and  _328
REMARK  134  A    between atoms: _328  and  _329
REMARK  135  A    between atoms: _328  and  _331
REMARK  136  A    between atoms: _331  and  _332
REMARK  137  A    between atoms: _335  and  _337
REMARK  138  A    between atoms: _337  and  _338
REMARK  139  A    between atoms: _337  and  _340
REMARK  140  A    between atoms: _340  and  _341
REMARK  141  A    between atoms: _341  and  _342
REMARK  142  A    between atoms: _342  and  _343
REMARK  143  A    between atoms: _352  and  _354
REMARK  144  A    between atoms: _354  and  _355
REMARK  145  A    between atoms: _354  and  _357
REMARK  146  A    between atoms: _357  and  _358
REMARK  147  A    between atoms: _361  and  _363
REMARK  148  A    between atoms: _363  and  _364
REMARK  149  A    between atoms: _363  and  _366
REMARK  150  A    between atoms: _366  and  _367
REMARK  151  A    between atoms: _371  and  _372
REMARK  152  A    between atoms: _377  and  _379
REMARK  153  A    between atoms: _379  and  _380
REMARK  154  A    between atoms: _379  and  _382
REMARK  155  A    between atoms: _382  and  _383
REMARK  156  A    between atoms: _388  and  _389
REMARK  157  A    between atoms: _391  and  _393
REMARK  158  A    between atoms: _393  and  _394
REMARK  159  A    between atoms: _393  and  _396
REMARK  160  A    between atoms: _396  and  _397
REMARK  161  A    between atoms: _407  and  _409
REMARK  162  A    between atoms: _409  and  _410
REMARK  163  A    between atoms: _409  and  _412
REMARK  164  A    between atoms: _412  and  _413
REMARK  165  A    between atoms: _419  and  _421
REMARK  166  A    between atoms: _421  and  _422
REMARK  167  A    between atoms: _421  and  _424
REMARK  168  A    between atoms: _424  and  _425
REMARK  169  A    between atoms: _428  and  _430
REMARK  170  A    between atoms: _430  and  _431
REMARK  171  A    between atoms: _430  and  _433
REMARK  172  A    between atoms: _433  and  _434
REMARK  173  A    between atoms: _444  and  _446
REMARK  174  A    between atoms: _446  and  _447
REMARK  175  A    between atoms: _446  and  _449
REMARK  176  A    between atoms: _449  and  _450
REMARK  177  A    between atoms: _450  and  _451
REMARK  178  A    between atoms: _453  and  _455
REMARK  179  A    between atoms: _455  and  _456
REMARK  180  A    between atoms: _455  and  _458
REMARK  181  A    between atoms: _458  and  _459
REMARK  182  A    between atoms: _464  and  _466
REMARK  183  A    between atoms: _466  and  _467
REMARK  184  A    between atoms: _470  and  _471
REMARK  185  A    between atoms: _476  and  _478
REMARK  186  A    between atoms: _478  and  _479
REMARK  187  A    between atoms: _478  and  _481
REMARK  188  A    between atoms: _481  and  _482
REMARK  189  A    between atoms: _492  and  _494
REMARK  190  A    between atoms: _494  and  _495
REMARK  191  A    between atoms: _499  and  _500
REMARK  192  A    between atoms: _505  and  _507
REMARK  193  A    between atoms: _507  and  _508
REMARK  194  A    between atoms: _507  and  _510
REMARK  195  A    between atoms: _510  and  _511
REMARK  196  A    between atoms: _511  and  _512
REMARK  197  A    between atoms: _517  and  _519
REMARK  198  A    between atoms: _519  and  _520
REMARK  199  A    between atoms: _522  and  _524
REMARK  200  A    between atoms: _524  and  _525
REMARK  201  A    between atoms: _527  and  _529
REMARK  202  A    between atoms: _529  and  _530
REMARK  203  A    between atoms: _529  and  _532
REMARK  204  A    between atoms: _532  and  _533
REMARK  205  A    between atoms: _543  and  _545
REMARK  206  A    between atoms: _545  and  _546
REMARK  207  A    between atoms: _545  and  _548
REMARK  208  A    between atoms: _548  and  _549
REMARK  209  A    between atoms: _552  and  _554
REMARK  210  A    between atoms: _554  and  _555
REMARK  211  A    between atoms: _554  and  _557
REMARK  212  A    between atoms: _557  and  _558
REMARK  213  A    between atoms: _561  and  _563
REMARK  214  A    between atoms: _563  and  _564
REMARK  215  A    between atoms: _563  and  _566
REMARK  216  A    between atoms: _566  and  _567
REMARK  217  A    between atoms: _567  and  _568
REMARK  218  A    between atoms: _568  and  _569
REMARK  219  A    between atoms: _578  and  _580
REMARK  220  A    between atoms: _580  and  _581
REMARK  221  A    between atoms: _580  and  _583
REMARK  222  A    between atoms: _583  and  _584
REMARK  223  A    between atoms: _594  and  _596
REMARK  224  A    between atoms: _596  and  _597
REMARK  225  A    between atoms: _599  and  _601
REMARK  226  A    between atoms: _601  and  _602
REMARK  227  A    between atoms: _601  and  _604
REMARK  228  A    between atoms: _604  and  _605
REMARK  229  A    between atoms: _610  and  _612
REMARK  230  A    between atoms: _612  and  _613
REMARK  231  A    between atoms: _616  and  _618
REMARK  232  A    between atoms: _618  and  _619
REMARK  233  A    between atoms: _618  and  _621
REMARK  234  A    between atoms: _621  and  _622
REMARK  235  A    between atoms: _625  and  _627
REMARK  236  A    between atoms: _627  and  _628
REMARK  237  A    between atoms: _627  and  _630
REMARK  238  A    between atoms: _630  and  _631
REMARK  239  A    between atoms: _637  and  _639
REMARK  240  A    between atoms: _639  and  _640
REMARK  241  A    between atoms: _639  and  _642
REMARK  242  A    between atoms: _642  and  _643
REMARK  243  A    between atoms: _643  and  _644
REMARK  244  A    between atoms: _647  and  _649
REMARK  245  A    between atoms: _649  and  _650
REMARK  246  A    between atoms: _649  and  _652
REMARK  247  A    between atoms: _652  and  _653
REMARK  248  A    between atoms: _653  and  _654
REMARK  249  A    between atoms: _654  and  _655
REMARK                            x       y       z     vdW  Elec       q    Type
REMARK                         _______ _______ _______ _____ _____    ______ ____
ROOT
ATOM      1  O   HOH     1     -10.977  -9.102  21.232  0.00  0.00    +0.000 OA
ENDROOT
TORSDOF 0
REMARK  Name = ../refined-set-2016/3jzj/3jzj_pocket.pdb
REMARK  249 active torsions:
REMARK  status: ('A' for Active; 'I' for Inactive)
REMARK    1  A    between atoms: _1  and  _3
REMARK    2  A    between atoms: _3  and  _4
REMARK    3  A    between atoms: _3  and  _6
REMARK    4  A    between atoms: _6  and  _7
REMARK    5  A    between atoms: _10  and  _12
REMARK    6  A    between atoms: _12  and  _13
REMARK    7  A    between atoms: _12  and  _15
REMARK    8  A    between atoms: _15  and  _16
REMARK    9  A    between atoms: _19  and  _21
REMARK   10  A    between atoms: _21  and  _22
REMARK   11  A    between atoms: _21  and  _24
REMARK   12  A    between atoms: _24  and  _25
REMARK   13  A    between atoms: _27  and  _29
REMARK   14  A    between atoms: _29  and  _30
REMARK   15  A    between atoms: _29  and  _32
REMARK   16  A    between atoms: _32  and  _33
REMARK   17  A    between atoms: _38  and  _40
REMARK   18  A    between atoms: _40  and  _41
REMARK   19  A    between atoms: _40  and  _43
REMARK   20  A    between atoms: _43  and  _44
REMARK   21  A    between atoms: _44  and  _45
REMARK   22  A    between atoms: _48  and  _50
REMARK   23  A    between atoms: _50  and  _51
REMARK   24  A    between atoms: _54  and  _56
REMARK   25  A    between atoms: _56  and  _57
REMARK   26  A    between atoms: _56  and  _59
REMARK   27  A    between atoms: _59  and  _60
REMARK   28  A    between atoms: _60  and  _61
REMARK   29  A    between atoms: _64  and  _66
REMARK   30  A    between atoms: _66  and  _67
REMARK   31  A    between atoms: _66  and  _69
REMARK   32  A    between atoms: _69  and  _70
REMARK   33  A    between atoms: _70  and  _71
REMARK   34  A    between atoms: _71  and  _72
REMARK   35  A    between atoms: _72  and  _73
REMARK   36  A    between atoms: _77  and  _79
REMARK   37  A    between atoms: _79  and  _80
REMARK   38  A    between atoms: _79  and  _82
REMARK   39  A    between atoms: _82  and  _83
REMARK   40  A    between atoms: _88  and  _89
REMARK   41  A    between atoms: _91  and  _93
REMARK   42  A    between atoms: _93  and  _94
REMARK   43  A    between atoms: _93  and  _96
REMARK   44  A    between atoms: _96  and  _97
REMARK   45  A    between atoms: _102  and  _104
REMARK   46  A    between atoms: _104  and  _105
REMARK   47  A    between atoms: _104  and  _107
REMARK   48  A    between atoms: _111  and  _112
REMARK   49  A    between atoms: _117  and  _119
REMARK   50  A    between atoms: _119  and  _120
REMARK   51  A    between atoms: _119  and  _122
REMARK   52  A    between atoms: _122  and  _123
REMARK   53  A    between atoms: _129  and  _131
REMARK   54  A    between atoms: _131  and  _132
REMARK   55  A    between atoms: _134  and  _136
REMARK   56  A    between atoms: _136  and  _137
REMARK   57  A    between atoms: _136  and  _139
REMARK   58  A    between atoms: _139  and  _140
REMARK   59  A    between atoms: _140  and  _141
REMARK   60  A    between atoms: _144  and  _146
REMARK   61  A    between atoms: _146  and  _147
REMARK   62  A    between atoms: _150  and  _152
REMARK   63  A    between atoms: _152  and  _153
REMARK   64  A    between atoms: _152  and  _155
REMARK   65  A    between atoms: _155  and  _156
REMARK   66  A    between atoms: _161  and  _163
REMARK   67  A    between atoms: _163  and  _164
REMARK   68  A    between atoms: _167  and  _169
REMARK   69  A    between atoms: _169  and  _170
REMARK   70  A    between atoms: _169  and  _172
REMARK   71  A    between atoms: _172  and  _173
REMARK   72  A    between atoms: _173  and  _174
REMARK   73  A    between atoms: _174  and  _175
REMARK   74  A    between atoms: _175  and  _176
REMARK   75  A    between atoms: _180  and  _182
REMARK   76  A    between atoms: _182  and  _183
REMARK   77  A    between atoms: _182  and  _185
REMARK   78  A    between atoms: _185  and  _186
REMARK   79  A    between atoms: _186  and  _187
REMARK   80  A    between atoms: _187  and  _188
REMARK   81  A    between atoms: _188  and  _189
REMARK   82  A    between atoms: _193  and  _195
REMARK   83  A    between atoms: _195  and  _196
REMARK   84  A    between atoms: _195  and  _198
REMARK   85  A    between atoms: _198  and  _199
REMARK   86  A    between atoms: _199  and  _200
REMARK   87  A    between atoms: _200  and  _201
REMARK   88  A    between atoms: _210  and  _212
REMARK   89  A    between atoms: _212  and  _213
REMARK   90  A    between atoms: _212  and  _215
REMARK   91  A    between atoms: _215  and  _216
REMARK   92  A    between atoms: _216  and  _217
REMARK   93  A    between atoms: _220  and  _222
REMARK   94  A    between atoms: _222  and  _223
REMARK   95  A    between atoms: _222  and  _225
REMARK   96  A    between atoms: _228  and  _230
REMARK   97  A    between atoms: _230  and  _231
REMARK   98  A    between atoms: _234  and  _236
REMARK   99  A    between atoms: _236  and  _237
REMARK  100  A    between atoms: _236  and  _239
REMARK  101  A    between atoms: _239  and  _240
REMARK  102  A    between atoms: _250  and  _252
REMARK  103  A    between atoms: _252  and  _253
REMARK  104  A    between atoms: _252  and  _255
REMARK  105  A    between atoms: _258  and  _260
REMARK  106  A    between atoms: _260  and  _261
REMARK  107  A    between atoms: _260  and  _263
REMARK  108  A    between atoms: _263  and  _264
REMARK  109  A    between atoms: _267  and  _269
REMARK  110  A    between atoms: _269  and  _270
REMARK  111  A    between atoms: _269  and  _272
REMARK  112  A    between atoms: _272  and  _273
REMARK  113  A    between atoms: _279  and  _281
REMARK  114  A    between atoms: _281  and  _282
REMARK  115  A    between atoms: _281  and  _284
REMARK  116  A    between atoms: _284  and  _285
REMARK  117  A    between atoms: _285  and  _286
REMARK  118  A    between atoms: _291  and  _293
REMARK  119  A    between atoms: _293  and  _294
REMARK  120  A    between atoms: _293  and  _296
REMARK  121  A    between atoms: _299  and  _301
REMARK  122  A    between atoms: _301  and  _302
REMARK  123  A    between atoms: _301  and  _304
REMARK  124  A    between atoms: _304  and  _305
REMARK  125  A    between atoms: _308  and  _310
REMARK  126  A    between atoms: _310  and  _311
REMARK  127  A    between atoms: _310  and  _313
REMARK  128  A    between atoms: _313  and  _314
REMARK  129  A    between atoms: _317  and  _319
REMARK  130  A    between atoms: _319  and  _320
REMARK  131  A    between atoms: _319  and  _322
REMARK  132  A    between atoms: _322  and  _323
REMARK  133  A    between atoms: _326  and  _328
REMARK  134  A    between atoms: _328  and  _329
REMARK  135  A    between atoms: _328  and  _331
REMARK  136  A    between atoms: _331  and  _332
REMARK  137  A    between atoms: _335  and  _337
REMARK  138  A    between atoms: _337  and  _338
REMARK  139  A    between atoms: _337  and  _340
REMARK  140  A    between atoms: _340  and  _341
REMARK  141  A    between atoms: _341  and  _342
REMARK  142  A    between atoms: _342  and  _343
REMARK  143  A    between atoms: _352  and  _354
REMARK  144  A    between atoms: _354  and  _355
REMARK  145  A    between atoms: _354  and  _357
REMARK  146  A    between atoms: _357  and  _358
REMARK  147  A    between atoms: _361  and  _363
REMARK  148  A    between atoms: _363  and  _364
REMARK  149  A    between atoms: _363  and  _366
REMARK  150  A    between atoms: _366  and  _367
REMARK  151  A    between atoms: _371  and  _372
REMARK  152  A    between atoms: _377  and  _379
REMARK  153  A    between atoms: _379  and  _380
REMARK  154  A    between atoms: _379  and  _382
REMARK  155  A    between atoms: _382  and  _383
REMARK  156  A    between atoms: _388  and  _389
REMARK  157  A    between atoms: _391  and  _393
REMARK  158  A    between atoms: _393  and  _394
REMARK  159  A    between atoms: _393  and  _396
REMARK  160  A    between atoms: _396  and  _397
REMARK  161  A    between atoms: _407  and  _409
REMARK  162  A    between atoms: _409  and  _410
REMARK  163  A    between atoms: _409  and  _412
REMARK  164  A    between atoms: _412  and  _413
REMARK  165  A    between atoms: _419  and  _421
REMARK  166  A    between atoms: _421  and  _422
REMARK  167  A    between atoms: _421  and  _424
REMARK  168  A    between atoms: _424  and  _425
REMARK  169  A    between atoms: _428  and  _430
REMARK  170  A    between atoms: _430  and  _431
REMARK  171  A    between atoms: _430  and  _433
REMARK  172  A    between atoms: _433  and  _434
REMARK  173  A    between atoms: _444  and  _446
REMARK  174  A    between atoms: _446  and  _447
REMARK  175  A    between atoms: _446  and  _449
REMARK  176  A    between atoms: _449  and  _450
REMARK  177  A    between atoms: _450  and  _451
REMARK  178  A    between atoms: _453  and  _455
REMARK  179  A    between atoms: _455  and  _456
REMARK  180  A    between atoms: _455  and  _458
REMARK  181  A    between atoms: _458  and  _459
REMARK  182  A    between atoms: _464  and  _466
REMARK  183  A    between atoms: _466  and  _467
REMARK  184  A    between atoms: _470  and  _471
REMARK  185  A    between atoms: _476  and  _478
REMARK  186  A    between atoms: _478  and  _479
REMARK  187  A    between atoms: _478  and  _481
REMARK  188  A    between atoms: _481  and  _482
REMARK  189  A    between atoms: _492  and  _494
REMARK  190  A    between atoms: _494  and  _495
REMARK  191  A    between atoms: _499  and  _500
REMARK  192  A    between atoms: _505  and  _507
REMARK  193  A    between atoms: _507  and  _508
REMARK  194  A    between atoms: _507  and  _510
REMARK  195  A    between atoms: _510  and  _511
REMARK  196  A    between atoms: _511  and  _512
REMARK  197  A    between atoms: _517  and  _519
REMARK  198  A    between atoms: _519  and  _520
REMARK  199  A    between atoms: _522  and  _524
REMARK  200  A    between atoms: _524  and  _525
REMARK  201  A    between atoms: _527  and  _529
REMARK  202  A    between atoms: _529  and  _530
REMARK  203  A    between atoms: _529  and  _532
REMARK  204  A    between atoms: _532  and  _533
REMARK  205  A    between atoms: _543  and  _545
REMARK  206  A    between atoms: _545  and  _546
REMARK  207  A    between atoms: _545  and  _548
REMARK  208  A    between atoms: _548  and  _549
REMARK  209  A    between atoms: _552  and  _554
REMARK  210  A    between atoms: _554  and  _555
REMARK  211  A    between atoms: _554  and  _557
REMARK  212  A    between atoms: _557  and  _558
REMARK  213  A    between atoms: _561  and  _563
REMARK  214  A    between atoms: _563  and  _564
REMARK  215  A    between atoms: _563  and  _566
REMARK  216  A    between atoms: _566  and  _567
REMARK  217  A    between atoms: _567  and  _568
REMARK  218  A    between atoms: _568  and  _569
REMARK  219  A    between atoms: _578  and  _580
REMARK  220  A    between atoms: _580  and  _581
REMARK  221  A    between atoms: _580  and  _583
REMARK  222  A    between atoms: _583  and  _584
REMARK  223  A    between atoms: _594  and  _596
REMARK  224  A    between atoms: _596  and  _597
REMARK  225  A    between atoms: _599  and  _601
REMARK  226  A    between atoms: _601  and  _602
REMARK  227  A    between atoms: _601  and  _604
REMARK  228  A    between atoms: _604  and  _605
REMARK  229  A    between atoms: _610  and  _612
REMARK  230  A    between atoms: _612  and  _613
REMARK  231  A    between atoms: _616  and  _618
REMARK  232  A    between atoms: _618  and  _619
REMARK  233  A    between atoms: _618  and  _621
REMARK  234  A    between atoms: _621  and  _622
REMARK  235  A    between atoms: _625  and  _627
REMARK  236  A    between atoms: _627  and  _628
REMARK  237  A    between atoms: _627  and  _630
REMARK  238  A    between atoms: _630  and  _631
REMARK  239  A    between atoms: _637  and  _639
REMARK  240  A    between atoms: _639  and  _640
REMARK  241  A    between atoms: _639  and  _642
REMARK  242  A    between atoms: _642  and  _643
REMARK  243  A    between atoms: _643  and  _644
REMARK  244  A    between atoms: _647  and  _649
REMARK  245  A    between atoms: _649  and  _650
REMARK  246  A    between atoms: _649  and  _652
REMARK  247  A    between atoms: _652  and  _653
REMARK  248  A    between atoms: _653  and  _654
REMARK  249  A    between atoms: _654  and  _655
REMARK                            x       y       z     vdW  Elec       q    Type
REMARK                         _______ _______ _______ _____ _____    ______ ____
ROOT
ATOM      1  O   HOH     1       0.428  -6.280  30.212  0.00  0.00    +0.000 OA
ENDROOT
TORSDOF 0
REMARK  Name = ../refined-set-2016/3jzj/3jzj_pocket.pdb
REMARK  249 active torsions:
REMARK  status: ('A' for Active; 'I' for Inactive)
REMARK    1  A    between atoms: _1  and  _3
REMARK    2  A    between atoms: _3  and  _4
REMARK    3  A    between atoms: _3  and  _6
REMARK    4  A    between atoms: _6  and  _7
REMARK    5  A    between atoms: _10  and  _12
REMARK    6  A    between atoms: _12  and  _13
REMARK    7  A    between atoms: _12  and  _15
REMARK    8  A    between atoms: _15  and  _16
REMARK    9  A    between atoms: _19  and  _21
REMARK   10  A    between atoms: _21  and  _22
REMARK   11  A    between atoms: _21  and  _24
REMARK   12  A    between atoms: _24  and  _25
REMARK   13  A    between atoms: _27  and  _29
REMARK   14  A    between atoms: _29  and  _30
REMARK   15  A    between atoms: _29  and  _32
REMARK   16  A    between atoms: _32  and  _33
REMARK   17  A    between atoms: _38  and  _40
REMARK   18  A    between atoms: _40  and  _41
REMARK   19  A    between atoms: _40  and  _43
REMARK   20  A    between atoms: _43  and  _44
REMARK   21  A    between atoms: _44  and  _45
REMARK   22  A    between atoms: _48  and  _50
REMARK   23  A    between atoms: _50  and  _51
REMARK   24  A    between atoms: _54  and  _56
REMARK   25  A    between atoms: _56  and  _57
REMARK   26  A    between atoms: _56  and  _59
REMARK   27  A    between atoms: _59  and  _60
REMARK   28  A    between atoms: _60  and  _61
REMARK   29  A    between atoms: _64  and  _66
REMARK   30  A    between atoms: _66  and  _67
REMARK   31  A    between atoms: _66  and  _69
REMARK   32  A    between atoms: _69  and  _70
REMARK   33  A    between atoms: _70  and  _71
REMARK   34  A    between atoms: _71  and  _72
REMARK   35  A    between atoms: _72  and  _73
REMARK   36  A    between atoms: _77  and  _79
REMARK   37  A    between atoms: _79  and  _80
REMARK   38  A    between atoms: _79  and  _82
REMARK   39  A    between atoms: _82  and  _83
REMARK   40  A    between atoms: _88  and  _89
REMARK   41  A    between atoms: _91  and  _93
REMARK   42  A    between atoms: _93  and  _94
REMARK   43  A    between atoms: _93  and  _96
REMARK   44  A    between atoms: _96  and  _97
REMARK   45  A    between atoms: _102  and  _104
REMARK   46  A    between atoms: _104  and  _105
REMARK   47  A    between atoms: _104  and  _107
REMARK   48  A    between atoms: _111  and  _112
REMARK   49  A    between atoms: _117  and  _119
REMARK   50  A    between atoms: _119  and  _120
REMARK   51  A    between atoms: _119  and  _122
REMARK   52  A    between atoms: _122  and  _123
REMARK   53  A    between atoms: _129  and  _131
REMARK   54  A    between atoms: _131  and  _132
REMARK   55  A    between atoms: _134  and  _136
REMARK   56  A    between atoms: _136  and  _137
REMARK   57  A    between atoms: _136  and  _139
REMARK   58  A    between atoms: _139  and  _140
REMARK   59  A    between atoms: _140  and  _141
REMARK   60  A    between atoms: _144  and  _146
REMARK   61  A    between atoms: _146  and  _147
REMARK   62  A    between atoms: _150  and  _152
REMARK   63  A    between atoms: _152  and  _153
REMARK   64  A    between atoms: _152  and  _155
REMARK   65  A    between atoms: _155  and  _156
REMARK   66  A    between atoms: _161  and  _163
REMARK   67  A    between atoms: _163  and  _164
REMARK   68  A    between atoms: _167  and  _169
REMARK   69  A    between atoms: _169  and  _170
REMARK   70  A    between atoms: _169  and  _172
REMARK   71  A    between atoms: _172  and  _173
REMARK   72  A    between atoms: _173  and  _174
REMARK   73  A    between atoms: _174  and  _175
REMARK   74  A    between atoms: _175  and  _176
REMARK   75  A    between atoms: _180  and  _182
REMARK   76  A    between atoms: _182  and  _183
REMARK   77  A    between atoms: _182  and  _185
REMARK   78  A    between atoms: _185  and  _186
REMARK   79  A    between atoms: _186  and  _187
REMARK   80  A    between atoms: _187  and  _188
REMARK   81  A    between atoms: _188  and  _189
REMARK   82  A    between atoms: _193  and  _195
REMARK   83  A    between atoms: _195  and  _196
REMARK   84  A    between atoms: _195  and  _198
REMARK   85  A    between atoms: _198  and  _199
REMARK   86  A    between atoms: _199  and  _200
REMARK   87  A    between atoms: _200  and  _201
REMARK   88  A    between atoms: _210  and  _212
REMARK   89  A    between atoms: _212  and  _213
REMARK   90  A    between atoms: _212  and  _215
REMARK   91  A    between atoms: _215  and  _216
REMARK   92  A    between atoms: _216  and  _217
REMARK   93  A    between atoms: _220  and  _222
REMARK   94  A    between atoms: _222  and  _223
REMARK   95  A    between atoms: _222  and  _225
REMARK   96  A    between atoms: _228  and  _230
REMARK   97  A    between atoms: _230  and  _231
REMARK   98  A    between atoms: _234  and  _236
REMARK   99  A    between atoms: _236  and  _237
REMARK  100  A    between atoms: _236  and  _239
REMARK  101  A    between atoms: _239  and  _240
REMARK  102  A    between atoms: _250  and  _252
REMARK  103  A    between atoms: _252  and  _253
REMARK  104  A    between atoms: _252  and  _255
REMARK  105  A    between atoms: _258  and  _260
REMARK  106  A    between atoms: _260  and  _261
REMARK  107  A    between atoms: _260  and  _263
REMARK  108  A    between atoms: _263  and  _264
REMARK  109  A    between atoms: _267  and  _269
REMARK  110  A    between atoms: _269  and  _270
REMARK  111  A    between atoms: _269  and  _272
REMARK  112  A    between atoms: _272  and  _273
REMARK  113  A    between atoms: _279  and  _281
REMARK  114  A    between atoms: _281  and  _282
REMARK  115  A    between atoms: _281  and  _284
REMARK  116  A    between atoms: _284  and  _285
REMARK  117  A    between atoms: _285  and  _286
REMARK  118  A    between atoms: _291  and  _293
REMARK  119  A    between atoms: _293  and  _294
REMARK  120  A    between atoms: _293  and  _296
REMARK  121  A    between atoms: _299  and  _301
REMARK  122  A    between atoms: _301  and  _302
REMARK  123  A    between atoms: _301  and  _304
REMARK  124  A    between atoms: _304  and  _305
REMARK  125  A    between atoms: _308  and  _310
REMARK  126  A    between atoms: _310  and  _311
REMARK  127  A    between atoms: _310  and  _313
REMARK  128  A    between atoms: _313  and  _314
REMARK  129  A    between atoms: _317  and  _319
REMARK  130  A    between atoms: _319  and  _320
REMARK  131  A    between atoms: _319  and  _322
REMARK  132  A    between atoms: _322  and  _323
REMARK  133  A    between atoms: _326  and  _328
REMARK  134  A    between atoms: _328  and  _329
REMARK  135  A    between atoms: _328  and  _331
REMARK  136  A    between atoms: _331  and  _332
REMARK  137  A    between atoms: _335  and  _337
REMARK  138  A    between atoms: _337  and  _338
REMARK  139  A    between atoms: _337  and  _340
REMARK  140  A    between atoms: _340  and  _341
REMARK  141  A    between atoms: _341  and  _342
REMARK  142  A    between atoms: _342  and  _343
REMARK  143  A    between atoms: _352  and  _354
REMARK  144  A    between atoms: _354  and  _355
REMARK  145  A    between atoms: _354  and  _357
REMARK  146  A    between atoms: _357  and  _358
REMARK  147  A    between atoms: _361  and  _363
REMARK  148  A    between atoms: _363  and  _364
REMARK  149  A    between atoms: _363  and  _366
REMARK  150  A    between atoms: _366  and  _367
REMARK  151  A    between atoms: _371  and  _372
REMARK  152  A    between atoms: _377  and  _379
REMARK  153  A    between atoms: _379  and  _380
REMARK  154  A    between atoms: _379  and  _382
REMARK  155  A    between atoms: _382  and  _383
REMARK  156  A    between atoms: _388  and  _389
REMARK  157  A    between atoms: _391  and  _393
REMARK  158  A    between atoms: _393  and  _394
REMARK  159  A    between atoms: _393  and  _396
REMARK  160  A    between atoms: _396  and  _397
REMARK  161  A    between atoms: _407  and  _409
REMARK  162  A    between atoms: _409  and  _410
REMARK  163  A    between atoms: _409  and  _412
REMARK  164  A    between atoms: _412  and  _413
REMARK  165  A    between atoms: _419  and  _421
REMARK  166  A    between atoms: _421  and  _422
REMARK  167  A    between atoms: _421  and  _424
REMARK  168  A    between atoms: _424  and  _425
REMARK  169  A    between atoms: _428  and  _430
REMARK  170  A    between atoms: _430  and  _431
REMARK  171  A    between atoms: _430  and  _433
REMARK  172  A    between atoms: _433  and  _434
REMARK  173  A    between atoms: _444  and  _446
REMARK  174  A    between atoms: _446  and  _447
REMARK  175  A    between atoms: _446  and  _449
REMARK  176  A    between atoms: _449  and  _450
REMARK  177  A    between atoms: _450  and  _451
REMARK  178  A    between atoms: _453  and  _455
REMARK  179  A    between atoms: _455  and  _456
REMARK  180  A    between atoms: _455  and  _458
REMARK  181  A    between atoms: _458  and  _459
REMARK  182  A    between atoms: _464  and  _466
REMARK  183  A    between atoms: _466  and  _467
REMARK  184  A    between atoms: _470  and  _471
REMARK  185  A    between atoms: _476  and  _478
REMARK  186  A    between atoms: _478  and  _479
REMARK  187  A    between atoms: _478  and  _481
REMARK  188  A    between atoms: _481  and  _482
REMARK  189  A    between atoms: _492  and  _494
REMARK  190  A    between atoms: _494  and  _495
REMARK  191  A    between atoms: _499  and  _500
REMARK  192  A    between atoms: _505  and  _507
REMARK  193  A    between atoms: _507  and  _508
REMARK  194  A    between atoms: _507  and  _510
REMARK  195  A    between atoms: _510  and  _511
REMARK  196  A    between atoms: _511  and  _512
REMARK  197  A    between atoms: _517  and  _519
REMARK  198  A    between atoms: _519  and  _520
REMARK  199  A    between atoms: _522  and  _524
REMARK  200  A    between atoms: _524  and  _525
REMARK  201  A    between atoms: _527  and  _529
REMARK  202  A    between atoms: _529  and  _530
REMARK  203  A    between atoms: _529  and  _532
REMARK  204  A    between atoms: _532  and  _533
REMARK  205  A    between atoms: _543  and  _545
REMARK  206  A    between atoms: _545  and  _546
REMARK  207  A    between atoms: _545  and  _548
REMARK  208  A    between atoms: _548  and  _549
REMARK  209  A    between atoms: _552  and  _554
REMARK  210  A    between atoms: _554  and  _555
REMARK  211  A    between atoms: _554  and  _557
REMARK  212  A    between atoms: _557  and  _558
REMARK  213  A    between atoms: _561  and  _563
REMARK  214  A    between atoms: _563  and  _564
REMARK  215  A    between atoms: _563  and  _566
REMARK  216  A    between atoms: _566  and  _567
REMARK  217  A    between atoms: _567  and  _568
REMARK  218  A    between atoms: _568  and  _569
REMARK  219  A    between atoms: _578  and  _580
REMARK  220  A    between atoms: _580  and  _581
REMARK  221  A    between atoms: _580  and  _583
REMARK  222  A    between atoms: _583  and  _584
REMARK  223  A    between atoms: _594  and  _596
REMARK  224  A    between atoms: _596  and  _597
REMARK  225  A    between atoms: _599  and  _601
REMARK  226  A    between atoms: _601  and  _602
REMARK  227  A    between atoms: _601  and  _604
REMARK  228  A    between atoms: _604  and  _605
REMARK  229  A    between atoms: _610  and  _612
REMARK  230  A    between atoms: _612  and  _613
REMARK  231  A    between atoms: _616  and  _618
REMARK  232  A    between atoms: _618  and  _619
REMARK  233  A    between atoms: _618  and  _621
REMARK  234  A    between atoms: _621  and  _622
REMARK  235  A    between atoms: _625  and  _627
REMARK  236  A    between atoms: _627  and  _628
REMARK  237  A    between atoms: _627  and  _630
REMARK  238  A    between atoms: _630  and  _631
REMARK  239  A    between atoms: _637  and  _639
REMARK  240  A    between atoms: _639  and  _640
REMARK  241  A    between atoms: _639  and  _642
REMARK  242  A    between atoms: _642  and  _643
REMARK  243  A    between atoms: _643  and  _644
REMARK  244  A    between atoms: _647  and  _649
REMARK  245  A    between atoms: _649  and  _650
REMARK  246  A    between atoms: _649  and  _652
REMARK  247  A    between atoms: _652  and  _653
REMARK  248  A    between atoms: _653  and  _654
REMARK  249  A    between atoms: _654  and  _655
REMARK                            x       y       z     vdW  Elec       q    Type
REMARK                         _______ _______ _______ _____ _____    ______ ____
ROOT
ATOM      1  O   HOH     1       4.877  -3.350  25.316  0.00  0.00    +0.000 OA
ENDROOT
TORSDOF 0
REMARK  Name = ../refined-set-2016/3jzj/3jzj_pocket.pdb
REMARK  249 active torsions:
REMARK  status: ('A' for Active; 'I' for Inactive)
REMARK    1  A    between atoms: _1  and  _3
REMARK    2  A    between atoms: _3  and  _4
REMARK    3  A    between atoms: _3  and  _6
REMARK    4  A    between atoms: _6  and  _7
REMARK    5  A    between atoms: _10  and  _12
REMARK    6  A    between atoms: _12  and  _13
REMARK    7  A    between atoms: _12  and  _15
REMARK    8  A    between atoms: _15  and  _16
REMARK    9  A    between atoms: _19  and  _21
REMARK   10  A    between atoms: _21  and  _22
REMARK   11  A    between atoms: _21  and  _24
REMARK   12  A    between atoms: _24  and  _25
REMARK   13  A    between atoms: _27  and  _29
REMARK   14  A    between atoms: _29  and  _30
REMARK   15  A    between atoms: _29  and  _32
REMARK   16  A    between atoms: _32  and  _33
REMARK   17  A    between atoms: _38  and  _40
REMARK   18  A    between atoms: _40  and  _41
REMARK   19  A    between atoms: _40  and  _43
REMARK   20  A    between atoms: _43  and  _44
REMARK   21  A    between atoms: _44  and  _45
REMARK   22  A    between atoms: _48  and  _50
REMARK   23  A    between atoms: _50  and  _51
REMARK   24  A    between atoms: _54  and  _56
REMARK   25  A    between atoms: _56  and  _57
REMARK   26  A    between atoms: _56  and  _59
REMARK   27  A    between atoms: _59  and  _60
REMARK   28  A    between atoms: _60  and  _61
REMARK   29  A    between atoms: _64  and  _66
REMARK   30  A    between atoms: _66  and  _67
REMARK   31  A    between atoms: _66  and  _69
REMARK   32  A    between atoms: _69  and  _70
REMARK   33  A    between atoms: _70  and  _71
REMARK   34  A    between atoms: _71  and  _72
REMARK   35  A    between atoms: _72  and  _73
REMARK   36  A    between atoms: _77  and  _79
REMARK   37  A    between atoms: _79  and  _80
REMARK   38  A    between atoms: _79  and  _82
REMARK   39  A    between atoms: _82  and  _83
REMARK   40  A    between atoms: _88  and  _89
REMARK   41  A    between atoms: _91  and  _93
REMARK   42  A    between atoms: _93  and  _94
REMARK   43  A    between atoms: _93  and  _96
REMARK   44  A    between atoms: _96  and  _97
REMARK   45  A    between atoms: _102  and  _104
REMARK   46  A    between atoms: _104  and  _105
REMARK   47  A    between atoms: _104  and  _107
REMARK   48  A    between atoms: _111  and  _112
REMARK   49  A    between atoms: _117  and  _119
REMARK   50  A    between atoms: _119  and  _120
REMARK   51  A    between atoms: _119  and  _122
REMARK   52  A    between atoms: _122  and  _123
REMARK   53  A    between atoms: _129  and  _131
REMARK   54  A    between atoms: _131  and  _132
REMARK   55  A    between atoms: _134  and  _136
REMARK   56  A    between atoms: _136  and  _137
REMARK   57  A    between atoms: _136  and  _139
REMARK   58  A    between atoms: _139  and  _140
REMARK   59  A    between atoms: _140  and  _141
REMARK   60  A    between atoms: _144  and  _146
REMARK   61  A    between atoms: _146  and  _147
REMARK   62  A    between atoms: _150  and  _152
REMARK   63  A    between atoms: _152  and  _153
REMARK   64  A    between atoms: _152  and  _155
REMARK   65  A    between atoms: _155  and  _156
REMARK   66  A    between atoms: _161  and  _163
REMARK   67  A    between atoms: _163  and  _164
REMARK   68  A    between atoms: _167  and  _169
REMARK   69  A    between atoms: _169  and  _170
REMARK   70  A    between atoms: _169  and  _172
REMARK   71  A    between atoms: _172  and  _173
REMARK   72  A    between atoms: _173  and  _174
REMARK   73  A    between atoms: _174  and  _175
REMARK   74  A    between atoms: _175  and  _176
REMARK   75  A    between atoms: _180  and  _182
REMARK   76  A    between atoms: _182  and  _183
REMARK   77  A    between atoms: _182  and  _185
REMARK   78  A    between atoms: _185  and  _186
REMARK   79  A    between atoms: _186  and  _187
REMARK   80  A    between atoms: _187  and  _188
REMARK   81  A    between atoms: _188  and  _189
REMARK   82  A    between atoms: _193  and  _195
REMARK   83  A    between atoms: _195  and  _196
REMARK   84  A    between atoms: _195  and  _198
REMARK   85  A    between atoms: _198  and  _199
REMARK   86  A    between atoms: _199  and  _200
REMARK   87  A    between atoms: _200  and  _201
REMARK   88  A    between atoms: _210  and  _212
REMARK   89  A    between atoms: _212  and  _213
REMARK   90  A    between atoms: _212  and  _215
REMARK   91  A    between atoms: _215  and  _216
REMARK   92  A    between atoms: _216  and  _217
REMARK   93  A    between atoms: _220  and  _222
REMARK   94  A    between atoms: _222  and  _223
REMARK   95  A    between atoms: _222  and  _225
REMARK   96  A    between atoms: _228  and  _230
REMARK   97  A    between atoms: _230  and  _231
REMARK   98  A    between atoms: _234  and  _236
REMARK   99  A    between atoms: _236  and  _237
REMARK  100  A    between atoms: _236  and  _239
REMARK  101  A    between atoms: _239  and  _240
REMARK  102  A    between atoms: _250  and  _252
REMARK  103  A    between atoms: _252  and  _253
REMARK  104  A    between atoms: _252  and  _255
REMARK  105  A    between atoms: _258  and  _260
REMARK  106  A    between atoms: _260  and  _261
REMARK  107  A    between atoms: _260  and  _263
REMARK  108  A    between atoms: _263  and  _264
REMARK  109  A    between atoms: _267  and  _269
REMARK  110  A    between atoms: _269  and  _270
REMARK  111  A    between atoms: _269  and  _272
REMARK  112  A    between atoms: _272  and  _273
REMARK  113  A    between atoms: _279  and  _281
REMARK  114  A    between atoms: _281  and  _282
REMARK  115  A    between atoms: _281  and  _284
REMARK  116  A    between atoms: _284  and  _285
REMARK  117  A    between atoms: _285  and  _286
REMARK  118  A    between atoms: _291  and  _293
REMARK  119  A    between atoms: _293  and  _294
REMARK  120  A    between atoms: _293  and  _296
REMARK  121  A    between atoms: _299  and  _301
REMARK  122  A    between atoms: _301  and  _302
REMARK  123  A    between atoms: _301  and  _304
REMARK  124  A    between atoms: _304  and  _305
REMARK  125  A    between atoms: _308  and  _310
REMARK  126  A    between atoms: _310  and  _311
REMARK  127  A    between atoms: _310  and  _313
REMARK  128  A    between atoms: _313  and  _314
REMARK  129  A    between atoms: _317  and  _319
REMARK  130  A    between atoms: _319  and  _320
REMARK  131  A    between atoms: _319  and  _322
REMARK  132  A    between atoms: _322  and  _323
REMARK  133  A    between atoms: _326  and  _328
REMARK  134  A    between atoms: _328  and  _329
REMARK  135  A    between atoms: _328  and  _331
REMARK  136  A    between atoms: _331  and  _332
REMARK  137  A    between atoms: _335  and  _337
REMARK  138  A    between atoms: _337  and  _338
REMARK  139  A    between atoms: _337  and  _340
REMARK  140  A    between atoms: _340  and  _341
REMARK  141  A    between atoms: _341  and  _342
REMARK  142  A    between atoms: _342  and  _343
REMARK  143  A    between atoms: _352  and  _354
REMARK  144  A    between atoms: _354  and  _355
REMARK  145  A    between atoms: _354  and  _357
REMARK  146  A    between atoms: _357  and  _358
REMARK  147  A    between atoms: _361  and  _363
REMARK  148  A    between atoms: _363  and  _364
REMARK  149  A    between atoms: _363  and  _366
REMARK  150  A    between atoms: _366  and  _367
REMARK  151  A    between atoms: _371  and  _372
REMARK  152  A    between atoms: _377  and  _379
REMARK  153  A    between atoms: _379  and  _380
REMARK  154  A    between atoms: _379  and  _382
REMARK  155  A    between atoms: _382  and  _383
REMARK  156  A    between atoms: _388  and  _389
REMARK  157  A    between atoms: _391  and  _393
REMARK  158  A    between atoms: _393  and  _394
REMARK  159  A    between atoms: _393  and  _396
REMARK  160  A    between atoms: _396  and  _397
REMARK  161  A    between atoms: _407  and  _409
REMARK  162  A    between atoms: _409  and  _410
REMARK  163  A    between atoms: _409  and  _412
REMARK  164  A    between atoms: _412  and  _413
REMARK  165  A    between atoms: _419  and  _421
REMARK  166  A    between atoms: _421  and  _422
REMARK  167  A    between atoms: _421  and  _424
REMARK  168  A    between atoms: _424  and  _425
REMARK  169  A    between atoms: _428  and  _430
REMARK  170  A    between atoms: _430  and  _431
REMARK  171  A    between atoms: _430  and  _433
REMARK  172  A    between atoms: _433  and  _434
REMARK  173  A    between atoms: _444  and  _446
REMARK  174  A    between atoms: _446  and  _447
REMARK  175  A    between atoms: _446  and  _449
REMARK  176  A    between atoms: _449  and  _450
REMARK  177  A    between atoms: _450  and  _451
REMARK  178  A    between atoms: _453  and  _455
REMARK  179  A    between atoms: _455  and  _456
REMARK  180  A    between atoms: _455  and  _458
REMARK  181  A    between atoms: _458  and  _459
REMARK  182  A    between atoms: _464  and  _466
REMARK  183  A    between atoms: _466  and  _467
REMARK  184  A    between atoms: _470  and  _471
REMARK  185  A    between atoms: _476  and  _478
REMARK  186  A    between atoms: _478  and  _479
REMARK  187  A    between atoms: _478  and  _481
REMARK  188  A    between atoms: _481  and  _482
REMARK  189  A    between atoms: _492  and  _494
REMARK  190  A    between atoms: _494  and  _495
REMARK  191  A    between atoms: _499  and  _500
REMARK  192  A    between atoms: _505  and  _507
REMARK  193  A    between atoms: _507  and  _508
REMARK  194  A    between atoms: _507  and  _510
REMARK  195  A    between atoms: _510  and  _511
REMARK  196  A    between atoms: _511  and  _512
REMARK  197  A    between atoms: _517  and  _519
REMARK  198  A    between atoms: _519  and  _520
REMARK  199  A    between atoms: _522  and  _524
REMARK  200  A    between atoms: _524  and  _525
REMARK  201  A    between atoms: _527  and  _529
REMARK  202  A    between atoms: _529  and  _530
REMARK  203  A    between atoms: _529  and  _532
REMARK  204  A    between atoms: _532  and  _533
REMARK  205  A    between atoms: _543  and  _545
REMARK  206  A    between atoms: _545  and  _546
REMARK  207  A    between atoms: _545  and  _548
REMARK  208  A    between atoms: _548  and  _549
REMARK  209  A    between atoms: _552  and  _554
REMARK  210  A    between atoms: _554  and  _555
REMARK  211  A    between atoms: _554  and  _557
REMARK  212  A    between atoms: _557  and  _558
REMARK  213  A    between atoms: _561  and  _563
REMARK  214  A    between atoms: _563  and  _564
REMARK  215  A    between atoms: _563  and  _566
REMARK  216  A    between atoms: _566  and  _567
REMARK  217  A    between atoms: _567  and  _568
REMARK  218  A    between atoms: _568  and  _569
REMARK  219  A    between atoms: _578  and  _580
REMARK  220  A    between atoms: _580  and  _581
REMARK  221  A    between atoms: _580  and  _583
REMARK  222  A    between atoms: _583  and  _584
REMARK  223  A    between atoms: _594  and  _596
REMARK  224  A    between atoms: _596  and  _597
REMARK  225  A    between atoms: _599  and  _601
REMARK  226  A    between atoms: _601  and  _602
REMARK  227  A    between atoms: _601  and  _604
REMARK  228  A    between atoms: _604  and  _605
REMARK  229  A    between atoms: _610  and  _612
REMARK  230  A    between atoms: _612  and  _613
REMARK  231  A    between atoms: _616  and  _618
REMARK  232  A    between atoms: _618  and  _619
REMARK  233  A    between atoms: _618  and  _621
REMARK  234  A    between atoms: _621  and  _622
REMARK  235  A    between atoms: _625  and  _627
REMARK  236  A    between atoms: _627  and  _628
REMARK  237  A    between atoms: _627  and  _630
REMARK  238  A    between atoms: _630  and  _631
REMARK  239  A    between atoms: _637  and  _639
REMARK  240  A    between atoms: _639  and  _640
REMARK  241  A    between atoms: _639  and  _642
REMARK  242  A    between atoms: _642  and  _643
REMARK  243  A    between atoms: _643  and  _644
REMARK  244  A    between atoms: _647  and  _649
REMARK  245  A    between atoms: _649  and  _650
REMARK  246  A    between atoms: _649  and  _652
REMARK  247  A    between atoms: _652  and  _653
REMARK  248  A    between atoms: _653  and  _654
REMARK  249  A    between atoms: _654  and  _655
REMARK                            x       y       z     vdW  Elec       q    Type
REMARK                         _______ _______ _______ _____ _____    ______ ____
ROOT
ATOM      1  O   HOH     1      -9.441 -13.544  16.750  0.00  0.00    +0.000 OA
ENDROOT
TORSDOF 0
REMARK  Name = ../refined-set-2016/3jzj/3jzj_pocket.pdb
REMARK  249 active torsions:
REMARK  status: ('A' for Active; 'I' for Inactive)
REMARK    1  A    between atoms: _1  and  _3
REMARK    2  A    between atoms: _3  and  _4
REMARK    3  A    between atoms: _3  and  _6
REMARK    4  A    between atoms: _6  and  _7
REMARK    5  A    between atoms: _10  and  _12
REMARK    6  A    between atoms: _12  and  _13
REMARK    7  A    between atoms: _12  and  _15
REMARK    8  A    between atoms: _15  and  _16
REMARK    9  A    between atoms: _19  and  _21
REMARK   10  A    between atoms: _21  and  _22
REMARK   11  A    between atoms: _21  and  _24
REMARK   12  A    between atoms: _24  and  _25
REMARK   13  A    between atoms: _27  and  _29
REMARK   14  A    between atoms: _29  and  _30
REMARK   15  A    between atoms: _29  and  _32
REMARK   16  A    between atoms: _32  and  _33
REMARK   17  A    between atoms: _38  and  _40
REMARK   18  A    between atoms: _40  and  _41
REMARK   19  A    between atoms: _40  and  _43
REMARK   20  A    between atoms: _43  and  _44
REMARK   21  A    between atoms: _44  and  _45
REMARK   22  A    between atoms: _48  and  _50
REMARK   23  A    between atoms: _50  and  _51
REMARK   24  A    between atoms: _54  and  _56
REMARK   25  A    between atoms: _56  and  _57
REMARK   26  A    between atoms: _56  and  _59
REMARK   27  A    between atoms: _59  and  _60
REMARK   28  A    between atoms: _60  and  _61
REMARK   29  A    between atoms: _64  and  _66
REMARK   30  A    between atoms: _66  and  _67
REMARK   31  A    between atoms: _66  and  _69
REMARK   32  A    between atoms: _69  and  _70
REMARK   33  A    between atoms: _70  and  _71
REMARK   34  A    between atoms: _71  and  _72
REMARK   35  A    between atoms: _72  and  _73
REMARK   36  A    between atoms: _77  and  _79
REMARK   37  A    between atoms: _79  and  _80
REMARK   38  A    between atoms: _79  and  _82
REMARK   39  A    between atoms: _82  and  _83
REMARK   40  A    between atoms: _88  and  _89
REMARK   41  A    between atoms: _91  and  _93
REMARK   42  A    between atoms: _93  and  _94
REMARK   43  A    between atoms: _93  and  _96
REMARK   44  A    between atoms: _96  and  _97
REMARK   45  A    between atoms: _102  and  _104
REMARK   46  A    between atoms: _104  and  _105
REMARK   47  A    between atoms: _104  and  _107
REMARK   48  A    between atoms: _111  and  _112
REMARK   49  A    between atoms: _117  and  _119
REMARK   50  A    between atoms: _119  and  _120
REMARK   51  A    between atoms: _119  and  _122
REMARK   52  A    between atoms: _122  and  _123
REMARK   53  A    between atoms: _129  and  _131
REMARK   54  A    between atoms: _131  and  _132
REMARK   55  A    between atoms: _134  and  _136
REMARK   56  A    between atoms: _136  and  _137
REMARK   57  A    between atoms: _136  and  _139
REMARK   58  A    between atoms: _139  and  _140
REMARK   59  A    between atoms: _140  and  _141
REMARK   60  A    between atoms: _144  and  _146
REMARK   61  A    between atoms: _146  and  _147
REMARK   62  A    between atoms: _150  and  _152
REMARK   63  A    between atoms: _152  and  _153
REMARK   64  A    between atoms: _152  and  _155
REMARK   65  A    between atoms: _155  and  _156
REMARK   66  A    between atoms: _161  and  _163
REMARK   67  A    between atoms: _163  and  _164
REMARK   68  A    between atoms: _167  and  _169
REMARK   69  A    between atoms: _169  and  _170
REMARK   70  A    between atoms: _169  and  _172
REMARK   71  A    between atoms: _172  and  _173
REMARK   72  A    between atoms: _173  and  _174
REMARK   73  A    between atoms: _174  and  _175
REMARK   74  A    between atoms: _175  and  _176
REMARK   75  A    between atoms: _180  and  _182
REMARK   76  A    between atoms: _182  and  _183
REMARK   77  A    between atoms: _182  and  _185
REMARK   78  A    between atoms: _185  and  _186
REMARK   79  A    between atoms: _186  and  _187
REMARK   80  A    between atoms: _187  and  _188
REMARK   81  A    between atoms: _188  and  _189
REMARK   82  A    between atoms: _193  and  _195
REMARK   83  A    between atoms: _195  and  _196
REMARK   84  A    between atoms: _195  and  _198
REMARK   85  A    between atoms: _198  and  _199
REMARK   86  A    between atoms: _199  and  _200
REMARK   87  A    between atoms: _200  and  _201
REMARK   88  A    between atoms: _210  and  _212
REMARK   89  A    between atoms: _212  and  _213
REMARK   90  A    between atoms: _212  and  _215
REMARK   91  A    between atoms: _215  and  _216
REMARK   92  A    between atoms: _216  and  _217
REMARK   93  A    between atoms: _220  and  _222
REMARK   94  A    between atoms: _222  and  _223
REMARK   95  A    between atoms: _222  and  _225
REMARK   96  A    between atoms: _228  and  _230
REMARK   97  A    between atoms: _230  and  _231
REMARK   98  A    between atoms: _234  and  _236
REMARK   99  A    between atoms: _236  and  _237
REMARK  100  A    between atoms: _236  and  _239
REMARK  101  A    between atoms: _239  and  _240
REMARK  102  A    between atoms: _250  and  _252
REMARK  103  A    between atoms: _252  and  _253
REMARK  104  A    between atoms: _252  and  _255
REMARK  105  A    between atoms: _258  and  _260
REMARK  106  A    between atoms: _260  and  _261
REMARK  107  A    between atoms: _260  and  _263
REMARK  108  A    between atoms: _263  and  _264
REMARK  109  A    between atoms: _267  and  _269
REMARK  110  A    between atoms: _269  and  _270
REMARK  111  A    between atoms: _269  and  _272
REMARK  112  A    between atoms: _272  and  _273
REMARK  113  A    between atoms: _279  and  _281
REMARK  114  A    between atoms: _281  and  _282
REMARK  115  A    between atoms: _281  and  _284
REMARK  116  A    between atoms: _284  and  _285
REMARK  117  A    between atoms: _285  and  _286
REMARK  118  A    between atoms: _291  and  _293
REMARK  119  A    between atoms: _293  and  _294
REMARK  120  A    between atoms: _293  and  _296
REMARK  121  A    between atoms: _299  and  _301
REMARK  122  A    between atoms: _301  and  _302
REMARK  123  A    between atoms: _301  and  _304
REMARK  124  A    between atoms: _304  and  _305
REMARK  125  A    between atoms: _308  and  _310
REMARK  126  A    between atoms: _310  and  _311
REMARK  127  A    between atoms: _310  and  _313
REMARK  128  A    between atoms: _313  and  _314
REMARK  129  A    between atoms: _317  and  _319
REMARK  130  A    between atoms: _319  and  _320
REMARK  131  A    between atoms: _319  and  _322
REMARK  132  A    between atoms: _322  and  _323
REMARK  133  A    between atoms: _326  and  _328
REMARK  134  A    between atoms: _328  and  _329
REMARK  135  A    between atoms: _328  and  _331
REMARK  136  A    between atoms: _331  and  _332
REMARK  137  A    between atoms: _335  and  _337
REMARK  138  A    between atoms: _337  and  _338
REMARK  139  A    between atoms: _337  and  _340
REMARK  140  A    between atoms: _340  and  _341
REMARK  141  A    between atoms: _341  and  _342
REMARK  142  A    between atoms: _342  and  _343
REMARK  143  A    between atoms: _352  and  _354
REMARK  144  A    between atoms: _354  and  _355
REMARK  145  A    between atoms: _354  and  _357
REMARK  146  A    between atoms: _357  and  _358
REMARK  147  A    between atoms: _361  and  _363
REMARK  148  A    between atoms: _363  and  _364
REMARK  149  A    between atoms: _363  and  _366
REMARK  150  A    between atoms: _366  and  _367
REMARK  151  A    between atoms: _371  and  _372
REMARK  152  A    between atoms: _377  and  _379
REMARK  153  A    between atoms: _379  and  _380
REMARK  154  A    between atoms: _379  and  _382
REMARK  155  A    between atoms: _382  and  _383
REMARK  156  A    between atoms: _388  and  _389
REMARK  157  A    between atoms: _391  and  _393
REMARK  158  A    between atoms: _393  and  _394
REMARK  159  A    between atoms: _393  and  _396
REMARK  160  A    between atoms: _396  and  _397
REMARK  161  A    between atoms: _407  and  _409
REMARK  162  A    between atoms: _409  and  _410
REMARK  163  A    between atoms: _409  and  _412
REMARK  164  A    between atoms: _412  and  _413
REMARK  165  A    between atoms: _419  and  _421
REMARK  166  A    between atoms: _421  and  _422
REMARK  167  A    between atoms: _421  and  _424
REMARK  168  A    between atoms: _424  and  _425
REMARK  169  A    between atoms: _428  and  _430
REMARK  170  A    between atoms: _430  and  _431
REMARK  171  A    between atoms: _430  and  _433
REMARK  172  A    between atoms: _433  and  _434
REMARK  173  A    between atoms: _444  and  _446
REMARK  174  A    between atoms: _446  and  _447
REMARK  175  A    between atoms: _446  and  _449
REMARK  176  A    between atoms: _449  and  _450
REMARK  177  A    between atoms: _450  and  _451
REMARK  178  A    between atoms: _453  and  _455
REMARK  179  A    between atoms: _455  and  _456
REMARK  180  A    between atoms: _455  and  _458
REMARK  181  A    between atoms: _458  and  _459
REMARK  182  A    between atoms: _464  and  _466
REMARK  183  A    between atoms: _466  and  _467
REMARK  184  A    between atoms: _470  and  _471
REMARK  185  A    between atoms: _476  and  _478
REMARK  186  A    between atoms: _478  and  _479
REMARK  187  A    between atoms: _478  and  _481
REMARK  188  A    between atoms: _481  and  _482
REMARK  189  A    between atoms: _492  and  _494
REMARK  190  A    between atoms: _494  and  _495
REMARK  191  A    between atoms: _499  and  _500
REMARK  192  A    between atoms: _505  and  _507
REMARK  193  A    between atoms: _507  and  _508
REMARK  194  A    between atoms: _507  and  _510
REMARK  195  A    between atoms: _510  and  _511
REMARK  196  A    between atoms: _511  and  _512
REMARK  197  A    between atoms: _517  and  _519
REMARK  198  A    between atoms: _519  and  _520
REMARK  199  A    between atoms: _522  and  _524
REMARK  200  A    between atoms: _524  and  _525
REMARK  201  A    between atoms: _527  and  _529
REMARK  202  A    between atoms: _529  and  _530
REMARK  203  A    between atoms: _529  and  _532
REMARK  204  A    between atoms: _532  and  _533
REMARK  205  A    between atoms: _543  and  _545
REMARK  206  A    between atoms: _545  and  _546
REMARK  207  A    between atoms: _545  and  _548
REMARK  208  A    between atoms: _548  and  _549
REMARK  209  A    between atoms: _552  and  _554
REMARK  210  A    between atoms: _554  and  _555
REMARK  211  A    between atoms: _554  and  _557
REMARK  212  A    between atoms: _557  and  _558
REMARK  213  A    between atoms: _561  and  _563
REMARK  214  A    between atoms: _563  and  _564
REMARK  215  A    between atoms: _563  and  _566
REMARK  216  A    between atoms: _566  and  _567
REMARK  217  A    between atoms: _567  and  _568
REMARK  218  A    between atoms: _568  and  _569
REMARK  219  A    between atoms: _578  and  _580
REMARK  220  A    between atoms: _580  and  _581
REMARK  221  A    between atoms: _580  and  _583
REMARK  222  A    between atoms: _583  and  _584
REMARK  223  A    between atoms: _594  and  _596
REMARK  224  A    between atoms: _596  and  _597
REMARK  225  A    between atoms: _599  and  _601
REMARK  226  A    between atoms: _601  and  _602
REMARK  227  A    between atoms: _601  and  _604
REMARK  228  A    between atoms: _604  and  _605
REMARK  229  A    between atoms: _610  and  _612
REMARK  230  A    between atoms: _612  and  _613
REMARK  231  A    between atoms: _616  and  _618
REMARK  232  A    between atoms: _618  and  _619
REMARK  233  A    between atoms: _618  and  _621
REMARK  234  A    between atoms: _621  and  _622
REMARK  235  A    between atoms: _625  and  _627
REMARK  236  A    between atoms: _627  and  _628
REMARK  237  A    between atoms: _627  and  _630
REMARK  238  A    between atoms: _630  and  _631
REMARK  239  A    between atoms: _637  and  _639
REMARK  240  A    between atoms: _639  and  _640
REMARK  241  A    between atoms: _639  and  _642
REMARK  242  A    between atoms: _642  and  _643
REMARK  243  A    between atoms: _643  and  _644
REMARK  244  A    between atoms: _647  and  _649
REMARK  245  A    between atoms: _649  and  _650
REMARK  246  A    between atoms: _649  and  _652
REMARK  247  A    between atoms: _652  and  _653
REMARK  248  A    between atoms: _653  and  _654
REMARK  249  A    between atoms: _654  and  _655
REMARK                            x       y       z     vdW  Elec       q    Type
REMARK                         _______ _______ _______ _____ _____    ______ ____
ROOT
ATOM      1  O   HOH     1      -3.448 -17.662  20.224  0.00  0.00    +0.000 OA
ENDROOT
TORSDOF 0
REMARK  Name = ../refined-set-2016/3jzj/3jzj_pocket.pdb
REMARK  249 active torsions:
REMARK  status: ('A' for Active; 'I' for Inactive)
REMARK    1  A    between atoms: _1  and  _3
REMARK    2  A    between atoms: _3  and  _4
REMARK    3  A    between atoms: _3  and  _6
REMARK    4  A    between atoms: _6  and  _7
REMARK    5  A    between atoms: _10  and  _12
REMARK    6  A    between atoms: _12  and  _13
REMARK    7  A    between atoms: _12  and  _15
REMARK    8  A    between atoms: _15  and  _16
REMARK    9  A    between atoms: _19  and  _21
REMARK   10  A    between atoms: _21  and  _22
REMARK   11  A    between atoms: _21  and  _24
REMARK   12  A    between atoms: _24  and  _25
REMARK   13  A    between atoms: _27  and  _29
REMARK   14  A    between atoms: _29  and  _30
REMARK   15  A    between atoms: _29  and  _32
REMARK   16  A    between atoms: _32  and  _33
REMARK   17  A    between atoms: _38  and  _40
REMARK   18  A    between atoms: _40  and  _41
REMARK   19  A    between atoms: _40  and  _43
REMARK   20  A    between atoms: _43  and  _44
REMARK   21  A    between atoms: _44  and  _45
REMARK   22  A    between atoms: _48  and  _50
REMARK   23  A    between atoms: _50  and  _51
REMARK   24  A    between atoms: _54  and  _56
REMARK   25  A    between atoms: _56  and  _57
REMARK   26  A    between atoms: _56  and  _59
REMARK   27  A    between atoms: _59  and  _60
REMARK   28  A    between atoms: _60  and  _61
REMARK   29  A    between atoms: _64  and  _66
REMARK   30  A    between atoms: _66  and  _67
REMARK   31  A    between atoms: _66  and  _69
REMARK   32  A    between atoms: _69  and  _70
REMARK   33  A    between atoms: _70  and  _71
REMARK   34  A    between atoms: _71  and  _72
REMARK   35  A    between atoms: _72  and  _73
REMARK   36  A    between atoms: _77  and  _79
REMARK   37  A    between atoms: _79  and  _80
REMARK   38  A    between atoms: _79  and  _82
REMARK   39  A    between atoms: _82  and  _83
REMARK   40  A    between atoms: _88  and  _89
REMARK   41  A    between atoms: _91  and  _93
REMARK   42  A    between atoms: _93  and  _94
REMARK   43  A    between atoms: _93  and  _96
REMARK   44  A    between atoms: _96  and  _97
REMARK   45  A    between atoms: _102  and  _104
REMARK   46  A    between atoms: _104  and  _105
REMARK   47  A    between atoms: _104  and  _107
REMARK   48  A    between atoms: _111  and  _112
REMARK   49  A    between atoms: _117  and  _119
REMARK   50  A    between atoms: _119  and  _120
REMARK   51  A    between atoms: _119  and  _122
REMARK   52  A    between atoms: _122  and  _123
REMARK   53  A    between atoms: _129  and  _131
REMARK   54  A    between atoms: _131  and  _132
REMARK   55  A    between atoms: _134  and  _136
REMARK   56  A    between atoms: _136  and  _137
REMARK   57  A    between atoms: _136  and  _139
REMARK   58  A    between atoms: _139  and  _140
REMARK   59  A    between atoms: _140  and  _141
REMARK   60  A    between atoms: _144  and  _146
REMARK   61  A    between atoms: _146  and  _147
REMARK   62  A    between atoms: _150  and  _152
REMARK   63  A    between atoms: _152  and  _153
REMARK   64  A    between atoms: _152  and  _155
REMARK   65  A    between atoms: _155  and  _156
REMARK   66  A    between atoms: _161  and  _163
REMARK   67  A    between atoms: _163  and  _164
REMARK   68  A    between atoms: _167  and  _169
REMARK   69  A    between atoms: _169  and  _170
REMARK   70  A    between atoms: _169  and  _172
REMARK   71  A    between atoms: _172  and  _173
REMARK   72  A    between atoms: _173  and  _174
REMARK   73  A    between atoms: _174  and  _175
REMARK   74  A    between atoms: _175  and  _176
REMARK   75  A    between atoms: _180  and  _182
REMARK   76  A    between atoms: _182  and  _183
REMARK   77  A    between atoms: _182  and  _185
REMARK   78  A    between atoms: _185  and  _186
REMARK   79  A    between atoms: _186  and  _187
REMARK   80  A    between atoms: _187  and  _188
REMARK   81  A    between atoms: _188  and  _189
REMARK   82  A    between atoms: _193  and  _195
REMARK   83  A    between atoms: _195  and  _196
REMARK   84  A    between atoms: _195  and  _198
REMARK   85  A    between atoms: _198  and  _199
REMARK   86  A    between atoms: _199  and  _200
REMARK   87  A    between atoms: _200  and  _201
REMARK   88  A    between atoms: _210  and  _212
REMARK   89  A    between atoms: _212  and  _213
REMARK   90  A    between atoms: _212  and  _215
REMARK   91  A    between atoms: _215  and  _216
REMARK   92  A    between atoms: _216  and  _217
REMARK   93  A    between atoms: _220  and  _222
REMARK   94  A    between atoms: _222  and  _223
REMARK   95  A    between atoms: _222  and  _225
REMARK   96  A    between atoms: _228  and  _230
REMARK   97  A    between atoms: _230  and  _231
REMARK   98  A    between atoms: _234  and  _236
REMARK   99  A    between atoms: _236  and  _237
REMARK  100  A    between atoms: _236  and  _239
REMARK  101  A    between atoms: _239  and  _240
REMARK  102  A    between atoms: _250  and  _252
REMARK  103  A    between atoms: _252  and  _253
REMARK  104  A    between atoms: _252  and  _255
REMARK  105  A    between atoms: _258  and  _260
REMARK  106  A    between atoms: _260  and  _261
REMARK  107  A    between atoms: _260  and  _263
REMARK  108  A    between atoms: _263  and  _264
REMARK  109  A    between atoms: _267  and  _269
REMARK  110  A    between atoms: _269  and  _270
REMARK  111  A    between atoms: _269  and  _272
REMARK  112  A    between atoms: _272  and  _273
REMARK  113  A    between atoms: _279  and  _281
REMARK  114  A    between atoms: _281  and  _282
REMARK  115  A    between atoms: _281  and  _284
REMARK  116  A    between atoms: _284  and  _285
REMARK  117  A    between atoms: _285  and  _286
REMARK  118  A    between atoms: _291  and  _293
REMARK  119  A    between atoms: _293  and  _294
REMARK  120  A    between atoms: _293  and  _296
REMARK  121  A    between atoms: _299  and  _301
REMARK  122  A    between atoms: _301  and  _302
REMARK  123  A    between atoms: _301  and  _304
REMARK  124  A    between atoms: _304  and  _305
REMARK  125  A    between atoms: _308  and  _310
REMARK  126  A    between atoms: _310  and  _311
REMARK  127  A    between atoms: _310  and  _313
REMARK  128  A    between atoms: _313  and  _314
REMARK  129  A    between atoms: _317  and  _319
REMARK  130  A    between atoms: _319  and  _320
REMARK  131  A    between atoms: _319  and  _322
REMARK  132  A    between atoms: _322  and  _323
REMARK  133  A    between atoms: _326  and  _328
REMARK  134  A    between atoms: _328  and  _329
REMARK  135  A    between atoms: _328  and  _331
REMARK  136  A    between atoms: _331  and  _332
REMARK  137  A    between atoms: _335  and  _337
REMARK  138  A    between atoms: _337  and  _338
REMARK  139  A    between atoms: _337  and  _340
REMARK  140  A    between atoms: _340  and  _341
REMARK  141  A    between atoms: _341  and  _342
REMARK  142  A    between atoms: _342  and  _343
REMARK  143  A    between atoms: _352  and  _354
REMARK  144  A    between atoms: _354  and  _355
REMARK  145  A    between atoms: _354  and  _357
REMARK  146  A    between atoms: _357  and  _358
REMARK  147  A    between atoms: _361  and  _363
REMARK  148  A    between atoms: _363  and  _364
REMARK  149  A    between atoms: _363  and  _366
REMARK  150  A    between atoms: _366  and  _367
REMARK  151  A    between atoms: _371  and  _372
REMARK  152  A    between atoms: _377  and  _379
REMARK  153  A    between atoms: _379  and  _380
REMARK  154  A    between atoms: _379  and  _382
REMARK  155  A    between atoms: _382  and  _383
REMARK  156  A    between atoms: _388  and  _389
REMARK  157  A    between atoms: _391  and  _393
REMARK  158  A    between atoms: _393  and  _394
REMARK  159  A    between atoms: _393  and  _396
REMARK  160  A    between atoms: _396  and  _397
REMARK  161  A    between atoms: _407  and  _409
REMARK  162  A    between atoms: _409  and  _410
REMARK  163  A    between atoms: _409  and  _412
REMARK  164  A    between atoms: _412  and  _413
REMARK  165  A    between atoms: _419  and  _421
REMARK  166  A    between atoms: _421  and  _422
REMARK  167  A    between atoms: _421  and  _424
REMARK  168  A    between atoms: _424  and  _425
REMARK  169  A    between atoms: _428  and  _430
REMARK  170  A    between atoms: _430  and  _431
REMARK  171  A    between atoms: _430  and  _433
REMARK  172  A    between atoms: _433  and  _434
REMARK  173  A    between atoms: _444  and  _446
REMARK  174  A    between atoms: _446  and  _447
REMARK  175  A    between atoms: _446  and  _449
REMARK  176  A    between atoms: _449  and  _450
REMARK  177  A    between atoms: _450  and  _451
REMARK  178  A    between atoms: _453  and  _455
REMARK  179  A    between atoms: _455  and  _456
REMARK  180  A    between atoms: _455  and  _458
REMARK  181  A    between atoms: _458  and  _459
REMARK  182  A    between atoms: _464  and  _466
REMARK  183  A    between atoms: _466  and  _467
REMARK  184  A    between atoms: _470  and  _471
REMARK  185  A    between atoms: _476  and  _478
REMARK  186  A    between atoms: _478  and  _479
REMARK  187  A    between atoms: _478  and  _481
REMARK  188  A    between atoms: _481  and  _482
REMARK  189  A    between atoms: _492  and  _494
REMARK  190  A    between atoms: _494  and  _495
REMARK  191  A    between atoms: _499  and  _500
REMARK  192  A    between atoms: _505  and  _507
REMARK  193  A    between atoms: _507  and  _508
REMARK  194  A    between atoms: _507  and  _510
REMARK  195  A    between atoms: _510  and  _511
REMARK  196  A    between atoms: _511  and  _512
REMARK  197  A    between atoms: _517  and  _519
REMARK  198  A    between atoms: _519  and  _520
REMARK  199  A    between atoms: _522  and  _524
REMARK  200  A    between atoms: _524  and  _525
REMARK  201  A    between atoms: _527  and  _529
REMARK  202  A    between atoms: _529  and  _530
REMARK  203  A    between atoms: _529  and  _532
REMARK  204  A    between atoms: _532  and  _533
REMARK  205  A    between atoms: _543  and  _545
REMARK  206  A    between atoms: _545  and  _546
REMARK  207  A    between atoms: _545  and  _548
REMARK  208  A    between atoms: _548  and  _549
REMARK  209  A    between atoms: _552  and  _554
REMARK  210  A    between atoms: _554  and  _555
REMARK  211  A    between atoms: _554  and  _557
REMARK  212  A    between atoms: _557  and  _558
REMARK  213  A    between atoms: _561  and  _563
REMARK  214  A    between atoms: _563  and  _564
REMARK  215  A    between atoms: _563  and  _566
REMARK  216  A    between atoms: _566  and  _567
REMARK  217  A    between atoms: _567  and  _568
REMARK  218  A    between atoms: _568  and  _569
REMARK  219  A    between atoms: _578  and  _580
REMARK  220  A    between atoms: _580  and  _581
REMARK  221  A    between atoms: _580  and  _583
REMARK  222  A    between atoms: _583  and  _584
REMARK  223  A    between atoms: _594  and  _596
REMARK  224  A    between atoms: _596  and  _597
REMARK  225  A    between atoms: _599  and  _601
REMARK  226  A    between atoms: _601  and  _602
REMARK  227  A    between atoms: _601  and  _604
REMARK  228  A    between atoms: _604  and  _605
REMARK  229  A    between atoms: _610  and  _612
REMARK  230  A    between atoms: _612  and  _613
REMARK  231  A    between atoms: _616  and  _618
REMARK  232  A    between atoms: _618  and  _619
REMARK  233  A    between atoms: _618  and  _621
REMARK  234  A    between atoms: _621  and  _622
REMARK  235  A    between atoms: _625  and  _627
REMARK  236  A    between atoms: _627  and  _628
REMARK  237  A    between atoms: _627  and  _630
REMARK  238  A    between atoms: _630  and  _631
REMARK  239  A    between atoms: _637  and  _639
REMARK  240  A    between atoms: _639  and  _640
REMARK  241  A    between atoms: _639  and  _642
REMARK  242  A    between atoms: _642  and  _643
REMARK  243  A    between atoms: _643  and  _644
REMARK  244  A    between atoms: _647  and  _649
REMARK  245  A    between atoms: _649  and  _650
REMARK  246  A    between atoms: _649  and  _652
REMARK  247  A    between atoms: _652  and  _653
REMARK  248  A    between atoms: _653  and  _654
REMARK  249  A    between atoms: _654  and  _655
REMARK                            x       y       z     vdW  Elec       q    Type
REMARK                         _______ _______ _______ _____ _____    ______ ____
ROOT
ATOM      1  O   HOH     1       0.424 -15.615  25.044  0.00  0.00    +0.000 OA
ENDROOT
TORSDOF 0
REMARK  Name = ../refined-set-2016/3jzj/3jzj_pocket.pdb
REMARK  249 active torsions:
REMARK  status: ('A' for Active; 'I' for Inactive)
REMARK    1  A    between atoms: _1  and  _3
REMARK    2  A    between atoms: _3  and  _4
REMARK    3  A    between atoms: _3  and  _6
REMARK    4  A    between atoms: _6  and  _7
REMARK    5  A    between atoms: _10  and  _12
REMARK    6  A    between atoms: _12  and  _13
REMARK    7  A    between atoms: _12  and  _15
REMARK    8  A    between atoms: _15  and  _16
REMARK    9  A    between atoms: _19  and  _21
REMARK   10  A    between atoms: _21  and  _22
REMARK   11  A    between atoms: _21  and  _24
REMARK   12  A    between atoms: _24  and  _25
REMARK   13  A    between atoms: _27  and  _29
REMARK   14  A    between atoms: _29  and  _30
REMARK   15  A    between atoms: _29  and  _32
REMARK   16  A    between atoms: _32  and  _33
REMARK   17  A    between atoms: _38  and  _40
REMARK   18  A    between atoms: _40  and  _41
REMARK   19  A    between atoms: _40  and  _43
REMARK   20  A    between atoms: _43  and  _44
REMARK   21  A    between atoms: _44  and  _45
REMARK   22  A    between atoms: _48  and  _50
REMARK   23  A    between atoms: _50  and  _51
REMARK   24  A    between atoms: _54  and  _56
REMARK   25  A    between atoms: _56  and  _57
REMARK   26  A    between atoms: _56  and  _59
REMARK   27  A    between atoms: _59  and  _60
REMARK   28  A    between atoms: _60  and  _61
REMARK   29  A    between atoms: _64  and  _66
REMARK   30  A    between atoms: _66  and  _67
REMARK   31  A    between atoms: _66  and  _69
REMARK   32  A    between atoms: _69  and  _70
REMARK   33  A    between atoms: _70  and  _71
REMARK   34  A    between atoms: _71  and  _72
REMARK   35  A    between atoms: _72  and  _73
REMARK   36  A    between atoms: _77  and  _79
REMARK   37  A    between atoms: _79  and  _80
REMARK   38  A    between atoms: _79  and  _82
REMARK   39  A    between atoms: _82  and  _83
REMARK   40  A    between atoms: _88  and  _89
REMARK   41  A    between atoms: _91  and  _93
REMARK   42  A    between atoms: _93  and  _94
REMARK   43  A    between atoms: _93  and  _96
REMARK   44  A    between atoms: _96  and  _97
REMARK   45  A    between atoms: _102  and  _104
REMARK   46  A    between atoms: _104  and  _105
REMARK   47  A    between atoms: _104  and  _107
REMARK   48  A    between atoms: _111  and  _112
REMARK   49  A    between atoms: _117  and  _119
REMARK   50  A    between atoms: _119  and  _120
REMARK   51  A    between atoms: _119  and  _122
REMARK   52  A    between atoms: _122  and  _123
REMARK   53  A    between atoms: _129  and  _131
REMARK   54  A    between atoms: _131  and  _132
REMARK   55  A    between atoms: _134  and  _136
REMARK   56  A    between atoms: _136  and  _137
REMARK   57  A    between atoms: _136  and  _139
REMARK   58  A    between atoms: _139  and  _140
REMARK   59  A    between atoms: _140  and  _141
REMARK   60  A    between atoms: _144  and  _146
REMARK   61  A    between atoms: _146  and  _147
REMARK   62  A    between atoms: _150  and  _152
REMARK   63  A    between atoms: _152  and  _153
REMARK   64  A    between atoms: _152  and  _155
REMARK   65  A    between atoms: _155  and  _156
REMARK   66  A    between atoms: _161  and  _163
REMARK   67  A    between atoms: _163  and  _164
REMARK   68  A    between atoms: _167  and  _169
REMARK   69  A    between atoms: _169  and  _170
REMARK   70  A    between atoms: _169  and  _172
REMARK   71  A    between atoms: _172  and  _173
REMARK   72  A    between atoms: _173  and  _174
REMARK   73  A    between atoms: _174  and  _175
REMARK   74  A    between atoms: _175  and  _176
REMARK   75  A    between atoms: _180  and  _182
REMARK   76  A    between atoms: _182  and  _183
REMARK   77  A    between atoms: _182  and  _185
REMARK   78  A    between atoms: _185  and  _186
REMARK   79  A    between atoms: _186  and  _187
REMARK   80  A    between atoms: _187  and  _188
REMARK   81  A    between atoms: _188  and  _189
REMARK   82  A    between atoms: _193  and  _195
REMARK   83  A    between atoms: _195  and  _196
REMARK   84  A    between atoms: _195  and  _198
REMARK   85  A    between atoms: _198  and  _199
REMARK   86  A    between atoms: _199  and  _200
REMARK   87  A    between atoms: _200  and  _201
REMARK   88  A    between atoms: _210  and  _212
REMARK   89  A    between atoms: _212  and  _213
REMARK   90  A    between atoms: _212  and  _215
REMARK   91  A    between atoms: _215  and  _216
REMARK   92  A    between atoms: _216  and  _217
REMARK   93  A    between atoms: _220  and  _222
REMARK   94  A    between atoms: _222  and  _223
REMARK   95  A    between atoms: _222  and  _225
REMARK   96  A    between atoms: _228  and  _230
REMARK   97  A    between atoms: _230  and  _231
REMARK   98  A    between atoms: _234  and  _236
REMARK   99  A    between atoms: _236  and  _237
REMARK  100  A    between atoms: _236  and  _239
REMARK  101  A    between atoms: _239  and  _240
REMARK  102  A    between atoms: _250  and  _252
REMARK  103  A    between atoms: _252  and  _253
REMARK  104  A    between atoms: _252  and  _255
REMARK  105  A    between atoms: _258  and  _260
REMARK  106  A    between atoms: _260  and  _261
REMARK  107  A    between atoms: _260  and  _263
REMARK  108  A    between atoms: _263  and  _264
REMARK  109  A    between atoms: _267  and  _269
REMARK  110  A    between atoms: _269  and  _270
REMARK  111  A    between atoms: _269  and  _272
REMARK  112  A    between atoms: _272  and  _273
REMARK  113  A    between atoms: _279  and  _281
REMARK  114  A    between atoms: _281  and  _282
REMARK  115  A    between atoms: _281  and  _284
REMARK  116  A    between atoms: _284  and  _285
REMARK  117  A    between atoms: _285  and  _286
REMARK  118  A    between atoms: _291  and  _293
REMARK  119  A    between atoms: _293  and  _294
REMARK  120  A    between atoms: _293  and  _296
REMARK  121  A    between atoms: _299  and  _301
REMARK  122  A    between atoms: _301  and  _302
REMARK  123  A    between atoms: _301  and  _304
REMARK  124  A    between atoms: _304  and  _305
REMARK  125  A    between atoms: _308  and  _310
REMARK  126  A    between atoms: _310  and  _311
REMARK  127  A    between atoms: _310  and  _313
REMARK  128  A    between atoms: _313  and  _314
REMARK  129  A    between atoms: _317  and  _319
REMARK  130  A    between atoms: _319  and  _320
REMARK  131  A    between atoms: _319  and  _322
REMARK  132  A    between atoms: _322  and  _323
REMARK  133  A    between atoms: _326  and  _328
REMARK  134  A    between atoms: _328  and  _329
REMARK  135  A    between atoms: _328  and  _331
REMARK  136  A    between atoms: _331  and  _332
REMARK  137  A    between atoms: _335  and  _337
REMARK  138  A    between atoms: _337  and  _338
REMARK  139  A    between atoms: _337  and  _340
REMARK  140  A    between atoms: _340  and  _341
REMARK  141  A    between atoms: _341  and  _342
REMARK  142  A    between atoms: _342  and  _343
REMARK  143  A    between atoms: _352  and  _354
REMARK  144  A    between atoms: _354  and  _355
REMARK  145  A    between atoms: _354  and  _357
REMARK  146  A    between atoms: _357  and  _358
REMARK  147  A    between atoms: _361  and  _363
REMARK  148  A    between atoms: _363  and  _364
REMARK  149  A    between atoms: _363  and  _366
REMARK  150  A    between atoms: _366  and  _367
REMARK  151  A    between atoms: _371  and  _372
REMARK  152  A    between atoms: _377  and  _379
REMARK  153  A    between atoms: _379  and  _380
REMARK  154  A    between atoms: _379  and  _382
REMARK  155  A    between atoms: _382  and  _383
REMARK  156  A    between atoms: _388  and  _389
REMARK  157  A    between atoms: _391  and  _393
REMARK  158  A    between atoms: _393  and  _394
REMARK  159  A    between atoms: _393  and  _396
REMARK  160  A    between atoms: _396  and  _397
REMARK  161  A    between atoms: _407  and  _409
REMARK  162  A    between atoms: _409  and  _410
REMARK  163  A    between atoms: _409  and  _412
REMARK  164  A    between atoms: _412  and  _413
REMARK  165  A    between atoms: _419  and  _421
REMARK  166  A    between atoms: _421  and  _422
REMARK  167  A    between atoms: _421  and  _424
REMARK  168  A    between atoms: _424  and  _425
REMARK  169  A    between atoms: _428  and  _430
REMARK  170  A    between atoms: _430  and  _431
REMARK  171  A    between atoms: _430  and  _433
REMARK  172  A    between atoms: _433  and  _434
REMARK  173  A    between atoms: _444  and  _446
REMARK  174  A    between atoms: _446  and  _447
REMARK  175  A    between atoms: _446  and  _449
REMARK  176  A    between atoms: _449  and  _450
REMARK  177  A    between atoms: _450  and  _451
REMARK  178  A    between atoms: _453  and  _455
REMARK  179  A    between atoms: _455  and  _456
REMARK  180  A    between atoms: _455  and  _458
REMARK  181  A    between atoms: _458  and  _459
REMARK  182  A    between atoms: _464  and  _466
REMARK  183  A    between atoms: _466  and  _467
REMARK  184  A    between atoms: _470  and  _471
REMARK  185  A    between atoms: _476  and  _478
REMARK  186  A    between atoms: _478  and  _479
REMARK  187  A    between atoms: _478  and  _481
REMARK  188  A    between atoms: _481  and  _482
REMARK  189  A    between atoms: _492  and  _494
REMARK  190  A    between atoms: _494  and  _495
REMARK  191  A    between atoms: _499  and  _500
REMARK  192  A    between atoms: _505  and  _507
REMARK  193  A    between atoms: _507  and  _508
REMARK  194  A    between atoms: _507  and  _510
REMARK  195  A    between atoms: _510  and  _511
REMARK  196  A    between atoms: _511  and  _512
REMARK  197  A    between atoms: _517  and  _519
REMARK  198  A    between atoms: _519  and  _520
REMARK  199  A    between atoms: _522  and  _524
REMARK  200  A    between atoms: _524  and  _525
REMARK  201  A    between atoms: _527  and  _529
REMARK  202  A    between atoms: _529  and  _530
REMARK  203  A    between atoms: _529  and  _532
REMARK  204  A    between atoms: _532  and  _533
REMARK  205  A    between atoms: _543  and  _545
REMARK  206  A    between atoms: _545  and  _546
REMARK  207  A    between atoms: _545  and  _548
REMARK  208  A    between atoms: _548  and  _549
REMARK  209  A    between atoms: _552  and  _554
REMARK  210  A    between atoms: _554  and  _555
REMARK  211  A    between atoms: _554  and  _557
REMARK  212  A    between atoms: _557  and  _558
REMARK  213  A    between atoms: _561  and  _563
REMARK  214  A    between atoms: _563  and  _564
REMARK  215  A    between atoms: _563  and  _566
REMARK  216  A    between atoms: _566  and  _567
REMARK  217  A    between atoms: _567  and  _568
REMARK  218  A    between atoms: _568  and  _569
REMARK  219  A    between atoms: _578  and  _580
REMARK  220  A    between atoms: _580  and  _581
REMARK  221  A    between atoms: _580  and  _583
REMARK  222  A    between atoms: _583  and  _584
REMARK  223  A    between atoms: _594  and  _596
REMARK  224  A    between atoms: _596  and  _597
REMARK  225  A    between atoms: _599  and  _601
REMARK  226  A    between atoms: _601  and  _602
REMARK  227  A    between atoms: _601  and  _604
REMARK  228  A    between atoms: _604  and  _605
REMARK  229  A    between atoms: _610  and  _612
REMARK  230  A    between atoms: _612  and  _613
REMARK  231  A    between atoms: _616  and  _618
REMARK  232  A    between atoms: _618  and  _619
REMARK  233  A    between atoms: _618  and  _621
REMARK  234  A    between atoms: _621  and  _622
REMARK  235  A    between atoms: _625  and  _627
REMARK  236  A    between atoms: _627  and  _628
REMARK  237  A    between atoms: _627  and  _630
REMARK  238  A    between atoms: _630  and  _631
REMARK  239  A    between atoms: _637  and  _639
REMARK  240  A    between atoms: _639  and  _640
REMARK  241  A    between atoms: _639  and  _642
REMARK  242  A    between atoms: _642  and  _643
REMARK  243  A    between atoms: _643  and  _644
REMARK  244  A    between atoms: _647  and  _649
REMARK  245  A    between atoms: _649  and  _650
REMARK  246  A    between atoms: _649  and  _652
REMARK  247  A    between atoms: _652  and  _653
REMARK  248  A    between atoms: _653  and  _654
REMARK  249  A    between atoms: _654  and  _655
REMARK                            x       y       z     vdW  Elec       q    Type
REMARK                         _______ _______ _______ _____ _____    ______ ____
ROOT
ATOM      1  O   HOH     1     -11.617  -7.653  14.785  0.00  0.00    +0.000 OA
ENDROOT
TORSDOF 0
REMARK  Name = ../refined-set-2016/3jzj/3jzj_pocket.pdb
REMARK  249 active torsions:
REMARK  status: ('A' for Active; 'I' for Inactive)
REMARK    1  A    between atoms: _1  and  _3
REMARK    2  A    between atoms: _3  and  _4
REMARK    3  A    between atoms: _3  and  _6
REMARK    4  A    between atoms: _6  and  _7
REMARK    5  A    between atoms: _10  and  _12
REMARK    6  A    between atoms: _12  and  _13
REMARK    7  A    between atoms: _12  and  _15
REMARK    8  A    between atoms: _15  and  _16
REMARK    9  A    between atoms: _19  and  _21
REMARK   10  A    between atoms: _21  and  _22
REMARK   11  A    between atoms: _21  and  _24
REMARK   12  A    between atoms: _24  and  _25
REMARK   13  A    between atoms: _27  and  _29
REMARK   14  A    between atoms: _29  and  _30
REMARK   15  A    between atoms: _29  and  _32
REMARK   16  A    between atoms: _32  and  _33
REMARK   17  A    between atoms: _38  and  _40
REMARK   18  A    between atoms: _40  and  _41
REMARK   19  A    between atoms: _40  and  _43
REMARK   20  A    between atoms: _43  and  _44
REMARK   21  A    between atoms: _44  and  _45
REMARK   22  A    between atoms: _48  and  _50
REMARK   23  A    between atoms: _50  and  _51
REMARK   24  A    between atoms: _54  and  _56
REMARK   25  A    between atoms: _56  and  _57
REMARK   26  A    between atoms: _56  and  _59
REMARK   27  A    between atoms: _59  and  _60
REMARK   28  A    between atoms: _60  and  _61
REMARK   29  A    between atoms: _64  and  _66
REMARK   30  A    between atoms: _66  and  _67
REMARK   31  A    between atoms: _66  and  _69
REMARK   32  A    between atoms: _69  and  _70
REMARK   33  A    between atoms: _70  and  _71
REMARK   34  A    between atoms: _71  and  _72
REMARK   35  A    between atoms: _72  and  _73
REMARK   36  A    between atoms: _77  and  _79
REMARK   37  A    between atoms: _79  and  _80
REMARK   38  A    between atoms: _79  and  _82
REMARK   39  A    between atoms: _82  and  _83
REMARK   40  A    between atoms: _88  and  _89
REMARK   41  A    between atoms: _91  and  _93
REMARK   42  A    between atoms: _93  and  _94
REMARK   43  A    between atoms: _93  and  _96
REMARK   44  A    between atoms: _96  and  _97
REMARK   45  A    between atoms: _102  and  _104
REMARK   46  A    between atoms: _104  and  _105
REMARK   47  A    between atoms: _104  and  _107
REMARK   48  A    between atoms: _111  and  _112
REMARK   49  A    between atoms: _117  and  _119
REMARK   50  A    between atoms: _119  and  _120
REMARK   51  A    between atoms: _119  and  _122
REMARK   52  A    between atoms: _122  and  _123
REMARK   53  A    between atoms: _129  and  _131
REMARK   54  A    between atoms: _131  and  _132
REMARK   55  A    between atoms: _134  and  _136
REMARK   56  A    between atoms: _136  and  _137
REMARK   57  A    between atoms: _136  and  _139
REMARK   58  A    between atoms: _139  and  _140
REMARK   59  A    between atoms: _140  and  _141
REMARK   60  A    between atoms: _144  and  _146
REMARK   61  A    between atoms: _146  and  _147
REMARK   62  A    between atoms: _150  and  _152
REMARK   63  A    between atoms: _152  and  _153
REMARK   64  A    between atoms: _152  and  _155
REMARK   65  A    between atoms: _155  and  _156
REMARK   66  A    between atoms: _161  and  _163
REMARK   67  A    between atoms: _163  and  _164
REMARK   68  A    between atoms: _167  and  _169
REMARK   69  A    between atoms: _169  and  _170
REMARK   70  A    between atoms: _169  and  _172
REMARK   71  A    between atoms: _172  and  _173
REMARK   72  A    between atoms: _173  and  _174
REMARK   73  A    between atoms: _174  and  _175
REMARK   74  A    between atoms: _175  and  _176
REMARK   75  A    between atoms: _180  and  _182
REMARK   76  A    between atoms: _182  and  _183
REMARK   77  A    between atoms: _182  and  _185
REMARK   78  A    between atoms: _185  and  _186
REMARK   79  A    between atoms: _186  and  _187
REMARK   80  A    between atoms: _187  and  _188
REMARK   81  A    between atoms: _188  and  _189
REMARK   82  A    between atoms: _193  and  _195
REMARK   83  A    between atoms: _195  and  _196
REMARK   84  A    between atoms: _195  and  _198
REMARK   85  A    between atoms: _198  and  _199
REMARK   86  A    between atoms: _199  and  _200
REMARK   87  A    between atoms: _200  and  _201
REMARK   88  A    between atoms: _210  and  _212
REMARK   89  A    between atoms: _212  and  _213
REMARK   90  A    between atoms: _212  and  _215
REMARK   91  A    between atoms: _215  and  _216
REMARK   92  A    between atoms: _216  and  _217
REMARK   93  A    between atoms: _220  and  _222
REMARK   94  A    between atoms: _222  and  _223
REMARK   95  A    between atoms: _222  and  _225
REMARK   96  A    between atoms: _228  and  _230
REMARK   97  A    between atoms: _230  and  _231
REMARK   98  A    between atoms: _234  and  _236
REMARK   99  A    between atoms: _236  and  _237
REMARK  100  A    between atoms: _236  and  _239
REMARK  101  A    between atoms: _239  and  _240
REMARK  102  A    between atoms: _250  and  _252
REMARK  103  A    between atoms: _252  and  _253
REMARK  104  A    between atoms: _252  and  _255
REMARK  105  A    between atoms: _258  and  _260
REMARK  106  A    between atoms: _260  and  _261
REMARK  107  A    between atoms: _260  and  _263
REMARK  108  A    between atoms: _263  and  _264
REMARK  109  A    between atoms: _267  and  _269
REMARK  110  A    between atoms: _269  and  _270
REMARK  111  A    between atoms: _269  and  _272
REMARK  112  A    between atoms: _272  and  _273
REMARK  113  A    between atoms: _279  and  _281
REMARK  114  A    between atoms: _281  and  _282
REMARK  115  A    between atoms: _281  and  _284
REMARK  116  A    between atoms: _284  and  _285
REMARK  117  A    between atoms: _285  and  _286
REMARK  118  A    between atoms: _291  and  _293
REMARK  119  A    between atoms: _293  and  _294
REMARK  120  A    between atoms: _293  and  _296
REMARK  121  A    between atoms: _299  and  _301
REMARK  122  A    between atoms: _301  and  _302
REMARK  123  A    between atoms: _301  and  _304
REMARK  124  A    between atoms: _304  and  _305
REMARK  125  A    between atoms: _308  and  _310
REMARK  126  A    between atoms: _310  and  _311
REMARK  127  A    between atoms: _310  and  _313
REMARK  128  A    between atoms: _313  and  _314
REMARK  129  A    between atoms: _317  and  _319
REMARK  130  A    between atoms: _319  and  _320
REMARK  131  A    between atoms: _319  and  _322
REMARK  132  A    between atoms: _322  and  _323
REMARK  133  A    between atoms: _326  and  _328
REMARK  134  A    between atoms: _328  and  _329
REMARK  135  A    between atoms: _328  and  _331
REMARK  136  A    between atoms: _331  and  _332
REMARK  137  A    between atoms: _335  and  _337
REMARK  138  A    between atoms: _337  and  _338
REMARK  139  A    between atoms: _337  and  _340
REMARK  140  A    between atoms: _340  and  _341
REMARK  141  A    between atoms: _341  and  _342
REMARK  142  A    between atoms: _342  and  _343
REMARK  143  A    between atoms: _352  and  _354
REMARK  144  A    between atoms: _354  and  _355
REMARK  145  A    between atoms: _354  and  _357
REMARK  146  A    between atoms: _357  and  _358
REMARK  147  A    between atoms: _361  and  _363
REMARK  148  A    between atoms: _363  and  _364
REMARK  149  A    between atoms: _363  and  _366
REMARK  150  A    between atoms: _366  and  _367
REMARK  151  A    between atoms: _371  and  _372
REMARK  152  A    between atoms: _377  and  _379
REMARK  153  A    between atoms: _379  and  _380
REMARK  154  A    between atoms: _379  and  _382
REMARK  155  A    between atoms: _382  and  _383
REMARK  156  A    between atoms: _388  and  _389
REMARK  157  A    between atoms: _391  and  _393
REMARK  158  A    between atoms: _393  and  _394
REMARK  159  A    between atoms: _393  and  _396
REMARK  160  A    between atoms: _396  and  _397
REMARK  161  A    between atoms: _407  and  _409
REMARK  162  A    between atoms: _409  and  _410
REMARK  163  A    between atoms: _409  and  _412
REMARK  164  A    between atoms: _412  and  _413
REMARK  165  A    between atoms: _419  and  _421
REMARK  166  A    between atoms: _421  and  _422
REMARK  167  A    between atoms: _421  and  _424
REMARK  168  A    between atoms: _424  and  _425
REMARK  169  A    between atoms: _428  and  _430
REMARK  170  A    between atoms: _430  and  _431
REMARK  171  A    between atoms: _430  and  _433
REMARK  172  A    between atoms: _433  and  _434
REMARK  173  A    between atoms: _444  and  _446
REMARK  174  A    between atoms: _446  and  _447
REMARK  175  A    between atoms: _446  and  _449
REMARK  176  A    between atoms: _449  and  _450
REMARK  177  A    between atoms: _450  and  _451
REMARK  178  A    between atoms: _453  and  _455
REMARK  179  A    between atoms: _455  and  _456
REMARK  180  A    between atoms: _455  and  _458
REMARK  181  A    between atoms: _458  and  _459
REMARK  182  A    between atoms: _464  and  _466
REMARK  183  A    between atoms: _466  and  _467
REMARK  184  A    between atoms: _470  and  _471
REMARK  185  A    between atoms: _476  and  _478
REMARK  186  A    between atoms: _478  and  _479
REMARK  187  A    between atoms: _478  and  _481
REMARK  188  A    between atoms: _481  and  _482
REMARK  189  A    between atoms: _492  and  _494
REMARK  190  A    between atoms: _494  and  _495
REMARK  191  A    between atoms: _499  and  _500
REMARK  192  A    between atoms: _505  and  _507
REMARK  193  A    between atoms: _507  and  _508
REMARK  194  A    between atoms: _507  and  _510
REMARK  195  A    between atoms: _510  and  _511
REMARK  196  A    between atoms: _511  and  _512
REMARK  197  A    between atoms: _517  and  _519
REMARK  198  A    between atoms: _519  and  _520
REMARK  199  A    between atoms: _522  and  _524
REMARK  200  A    between atoms: _524  and  _525
REMARK  201  A    between atoms: _527  and  _529
REMARK  202  A    between atoms: _529  and  _530
REMARK  203  A    between atoms: _529  and  _532
REMARK  204  A    between atoms: _532  and  _533
REMARK  205  A    between atoms: _543  and  _545
REMARK  206  A    between atoms: _545  and  _546
REMARK  207  A    between atoms: _545  and  _548
REMARK  208  A    between atoms: _548  and  _549
REMARK  209  A    between atoms: _552  and  _554
REMARK  210  A    between atoms: _554  and  _555
REMARK  211  A    between atoms: _554  and  _557
REMARK  212  A    between atoms: _557  and  _558
REMARK  213  A    between atoms: _561  and  _563
REMARK  214  A    between atoms: _563  and  _564
REMARK  215  A    between atoms: _563  and  _566
REMARK  216  A    between atoms: _566  and  _567
REMARK  217  A    between atoms: _567  and  _568
REMARK  218  A    between atoms: _568  and  _569
REMARK  219  A    between atoms: _578  and  _580
REMARK  220  A    between atoms: _580  and  _581
REMARK  221  A    between atoms: _580  and  _583
REMARK  222  A    between atoms: _583  and  _584
REMARK  223  A    between atoms: _594  and  _596
REMARK  224  A    between atoms: _596  and  _597
REMARK  225  A    between atoms: _599  and  _601
REMARK  226  A    between atoms: _601  and  _602
REMARK  227  A    between atoms: _601  and  _604
REMARK  228  A    between atoms: _604  and  _605
REMARK  229  A    between atoms: _610  and  _612
REMARK  230  A    between atoms: _612  and  _613
REMARK  231  A    between atoms: _616  and  _618
REMARK  232  A    between atoms: _618  and  _619
REMARK  233  A    between atoms: _618  and  _621
REMARK  234  A    between atoms: _621  and  _622
REMARK  235  A    between atoms: _625  and  _627
REMARK  236  A    between atoms: _627  and  _628
REMARK  237  A    between atoms: _627  and  _630
REMARK  238  A    between atoms: _630  and  _631
REMARK  239  A    between atoms: _637  and  _639
REMARK  240  A    between atoms: _639  and  _640
REMARK  241  A    between atoms: _639  and  _642
REMARK  242  A    between atoms: _642  and  _643
REMARK  243  A    between atoms: _643  and  _644
REMARK  244  A    between atoms: _647  and  _649
REMARK  245  A    between atoms: _649  and  _650
REMARK  246  A    between atoms: _649  and  _652
REMARK  247  A    between atoms: _652  and  _653
REMARK  248  A    between atoms: _653  and  _654
REMARK  249  A    between atoms: _654  and  _655
REMARK                            x       y       z     vdW  Elec       q    Type
REMARK                         _______ _______ _______ _____ _____    ______ ____
ROOT
ATOM      1  O   HOH     1      -9.817  -5.379  11.838  0.00  0.00    +0.000 OA
ENDROOT
TORSDOF 0
REMARK  Name = ../refined-set-2016/3jzj/3jzj_pocket.pdb
REMARK  249 active torsions:
REMARK  status: ('A' for Active; 'I' for Inactive)
REMARK    1  A    between atoms: _1  and  _3
REMARK    2  A    between atoms: _3  and  _4
REMARK    3  A    between atoms: _3  and  _6
REMARK    4  A    between atoms: _6  and  _7
REMARK    5  A    between atoms: _10  and  _12
REMARK    6  A    between atoms: _12  and  _13
REMARK    7  A    between atoms: _12  and  _15
REMARK    8  A    between atoms: _15  and  _16
REMARK    9  A    between atoms: _19  and  _21
REMARK   10  A    between atoms: _21  and  _22
REMARK   11  A    between atoms: _21  and  _24
REMARK   12  A    between atoms: _24  and  _25
REMARK   13  A    between atoms: _27  and  _29
REMARK   14  A    between atoms: _29  and  _30
REMARK   15  A    between atoms: _29  and  _32
REMARK   16  A    between atoms: _32  and  _33
REMARK   17  A    between atoms: _38  and  _40
REMARK   18  A    between atoms: _40  and  _41
REMARK   19  A    between atoms: _40  and  _43
REMARK   20  A    between atoms: _43  and  _44
REMARK   21  A    between atoms: _44  and  _45
REMARK   22  A    between atoms: _48  and  _50
REMARK   23  A    between atoms: _50  and  _51
REMARK   24  A    between atoms: _54  and  _56
REMARK   25  A    between atoms: _56  and  _57
REMARK   26  A    between atoms: _56  and  _59
REMARK   27  A    between atoms: _59  and  _60
REMARK   28  A    between atoms: _60  and  _61
REMARK   29  A    between atoms: _64  and  _66
REMARK   30  A    between atoms: _66  and  _67
REMARK   31  A    between atoms: _66  and  _69
REMARK   32  A    between atoms: _69  and  _70
REMARK   33  A    between atoms: _70  and  _71
REMARK   34  A    between atoms: _71  and  _72
REMARK   35  A    between atoms: _72  and  _73
REMARK   36  A    between atoms: _77  and  _79
REMARK   37  A    between atoms: _79  and  _80
REMARK   38  A    between atoms: _79  and  _82
REMARK   39  A    between atoms: _82  and  _83
REMARK   40  A    between atoms: _88  and  _89
REMARK   41  A    between atoms: _91  and  _93
REMARK   42  A    between atoms: _93  and  _94
REMARK   43  A    between atoms: _93  and  _96
REMARK   44  A    between atoms: _96  and  _97
REMARK   45  A    between atoms: _102  and  _104
REMARK   46  A    between atoms: _104  and  _105
REMARK   47  A    between atoms: _104  and  _107
REMARK   48  A    between atoms: _111  and  _112
REMARK   49  A    between atoms: _117  and  _119
REMARK   50  A    between atoms: _119  and  _120
REMARK   51  A    between atoms: _119  and  _122
REMARK   52  A    between atoms: _122  and  _123
REMARK   53  A    between atoms: _129  and  _131
REMARK   54  A    between atoms: _131  and  _132
REMARK   55  A    between atoms: _134  and  _136
REMARK   56  A    between atoms: _136  and  _137
REMARK   57  A    between atoms: _136  and  _139
REMARK   58  A    between atoms: _139  and  _140
REMARK   59  A    between atoms: _140  and  _141
REMARK   60  A    between atoms: _144  and  _146
REMARK   61  A    between atoms: _146  and  _147
REMARK   62  A    between atoms: _150  and  _152
REMARK   63  A    between atoms: _152  and  _153
REMARK   64  A    between atoms: _152  and  _155
REMARK   65  A    between atoms: _155  and  _156
REMARK   66  A    between atoms: _161  and  _163
REMARK   67  A    between atoms: _163  and  _164
REMARK   68  A    between atoms: _167  and  _169
REMARK   69  A    between atoms: _169  and  _170
REMARK   70  A    between atoms: _169  and  _172
REMARK   71  A    between atoms: _172  and  _173
REMARK   72  A    between atoms: _173  and  _174
REMARK   73  A    between atoms: _174  and  _175
REMARK   74  A    between atoms: _175  and  _176
REMARK   75  A    between atoms: _180  and  _182
REMARK   76  A    between atoms: _182  and  _183
REMARK   77  A    between atoms: _182  and  _185
REMARK   78  A    between atoms: _185  and  _186
REMARK   79  A    between atoms: _186  and  _187
REMARK   80  A    between atoms: _187  and  _188
REMARK   81  A    between atoms: _188  and  _189
REMARK   82  A    between atoms: _193  and  _195
REMARK   83  A    between atoms: _195  and  _196
REMARK   84  A    between atoms: _195  and  _198
REMARK   85  A    between atoms: _198  and  _199
REMARK   86  A    between atoms: _199  and  _200
REMARK   87  A    between atoms: _200  and  _201
REMARK   88  A    between atoms: _210  and  _212
REMARK   89  A    between atoms: _212  and  _213
REMARK   90  A    between atoms: _212  and  _215
REMARK   91  A    between atoms: _215  and  _216
REMARK   92  A    between atoms: _216  and  _217
REMARK   93  A    between atoms: _220  and  _222
REMARK   94  A    between atoms: _222  and  _223
REMARK   95  A    between atoms: _222  and  _225
REMARK   96  A    between atoms: _228  and  _230
REMARK   97  A    between atoms: _230  and  _231
REMARK   98  A    between atoms: _234  and  _236
REMARK   99  A    between atoms: _236  and  _237
REMARK  100  A    between atoms: _236  and  _239
REMARK  101  A    between atoms: _239  and  _240
REMARK  102  A    between atoms: _250  and  _252
REMARK  103  A    between atoms: _252  and  _253
REMARK  104  A    between atoms: _252  and  _255
REMARK  105  A    between atoms: _258  and  _260
REMARK  106  A    between atoms: _260  and  _261
REMARK  107  A    between atoms: _260  and  _263
REMARK  108  A    between atoms: _263  and  _264
REMARK  109  A    between atoms: _267  and  _269
REMARK  110  A    between atoms: _269  and  _270
REMARK  111  A    between atoms: _269  and  _272
REMARK  112  A    between atoms: _272  and  _273
REMARK  113  A    between atoms: _279  and  _281
REMARK  114  A    between atoms: _281  and  _282
REMARK  115  A    between atoms: _281  and  _284
REMARK  116  A    between atoms: _284  and  _285
REMARK  117  A    between atoms: _285  and  _286
REMARK  118  A    between atoms: _291  and  _293
REMARK  119  A    between atoms: _293  and  _294
REMARK  120  A    between atoms: _293  and  _296
REMARK  121  A    between atoms: _299  and  _301
REMARK  122  A    between atoms: _301  and  _302
REMARK  123  A    between atoms: _301  and  _304
REMARK  124  A    between atoms: _304  and  _305
REMARK  125  A    between atoms: _308  and  _310
REMARK  126  A    between atoms: _310  and  _311
REMARK  127  A    between atoms: _310  and  _313
REMARK  128  A    between atoms: _313  and  _314
REMARK  129  A    between atoms: _317  and  _319
REMARK  130  A    between atoms: _319  and  _320
REMARK  131  A    between atoms: _319  and  _322
REMARK  132  A    between atoms: _322  and  _323
REMARK  133  A    between atoms: _326  and  _328
REMARK  134  A    between atoms: _328  and  _329
REMARK  135  A    between atoms: _328  and  _331
REMARK  136  A    between atoms: _331  and  _332
REMARK  137  A    between atoms: _335  and  _337
REMARK  138  A    between atoms: _337  and  _338
REMARK  139  A    between atoms: _337  and  _340
REMARK  140  A    between atoms: _340  and  _341
REMARK  141  A    between atoms: _341  and  _342
REMARK  142  A    between atoms: _342  and  _343
REMARK  143  A    between atoms: _352  and  _354
REMARK  144  A    between atoms: _354  and  _355
REMARK  145  A    between atoms: _354  and  _357
REMARK  146  A    between atoms: _357  and  _358
REMARK  147  A    between atoms: _361  and  _363
REMARK  148  A    between atoms: _363  and  _364
REMARK  149  A    between atoms: _363  and  _366
REMARK  150  A    between atoms: _366  and  _367
REMARK  151  A    between atoms: _371  and  _372
REMARK  152  A    between atoms: _377  and  _379
REMARK  153  A    between atoms: _379  and  _380
REMARK  154  A    between atoms: _379  and  _382
REMARK  155  A    between atoms: _382  and  _383
REMARK  156  A    between atoms: _388  and  _389
REMARK  157  A    between atoms: _391  and  _393
REMARK  158  A    between atoms: _393  and  _394
REMARK  159  A    between atoms: _393  and  _396
REMARK  160  A    between atoms: _396  and  _397
REMARK  161  A    between atoms: _407  and  _409
REMARK  162  A    between atoms: _409  and  _410
REMARK  163  A    between atoms: _409  and  _412
REMARK  164  A    between atoms: _412  and  _413
REMARK  165  A    between atoms: _419  and  _421
REMARK  166  A    between atoms: _421  and  _422
REMARK  167  A    between atoms: _421  and  _424
REMARK  168  A    between atoms: _424  and  _425
REMARK  169  A    between atoms: _428  and  _430
REMARK  170  A    between atoms: _430  and  _431
REMARK  171  A    between atoms: _430  and  _433
REMARK  172  A    between atoms: _433  and  _434
REMARK  173  A    between atoms: _444  and  _446
REMARK  174  A    between atoms: _446  and  _447
REMARK  175  A    between atoms: _446  and  _449
REMARK  176  A    between atoms: _449  and  _450
REMARK  177  A    between atoms: _450  and  _451
REMARK  178  A    between atoms: _453  and  _455
REMARK  179  A    between atoms: _455  and  _456
REMARK  180  A    between atoms: _455  and  _458
REMARK  181  A    between atoms: _458  and  _459
REMARK  182  A    between atoms: _464  and  _466
REMARK  183  A    between atoms: _466  and  _467
REMARK  184  A    between atoms: _470  and  _471
REMARK  185  A    between atoms: _476  and  _478
REMARK  186  A    between atoms: _478  and  _479
REMARK  187  A    between atoms: _478  and  _481
REMARK  188  A    between atoms: _481  and  _482
REMARK  189  A    between atoms: _492  and  _494
REMARK  190  A    between atoms: _494  and  _495
REMARK  191  A    between atoms: _499  and  _500
REMARK  192  A    between atoms: _505  and  _507
REMARK  193  A    between atoms: _507  and  _508
REMARK  194  A    between atoms: _507  and  _510
REMARK  195  A    between atoms: _510  and  _511
REMARK  196  A    between atoms: _511  and  _512
REMARK  197  A    between atoms: _517  and  _519
REMARK  198  A    between atoms: _519  and  _520
REMARK  199  A    between atoms: _522  and  _524
REMARK  200  A    between atoms: _524  and  _525
REMARK  201  A    between atoms: _527  and  _529
REMARK  202  A    between atoms: _529  and  _530
REMARK  203  A    between atoms: _529  and  _532
REMARK  204  A    between atoms: _532  and  _533
REMARK  205  A    between atoms: _543  and  _545
REMARK  206  A    between atoms: _545  and  _546
REMARK  207  A    between atoms: _545  and  _548
REMARK  208  A    between atoms: _548  and  _549
REMARK  209  A    between atoms: _552  and  _554
REMARK  210  A    between atoms: _554  and  _555
REMARK  211  A    between atoms: _554  and  _557
REMARK  212  A    between atoms: _557  and  _558
REMARK  213  A    between atoms: _561  and  _563
REMARK  214  A    between atoms: _563  and  _564
REMARK  215  A    between atoms: _563  and  _566
REMARK  216  A    between atoms: _566  and  _567
REMARK  217  A    between atoms: _567  and  _568
REMARK  218  A    between atoms: _568  and  _569
REMARK  219  A    between atoms: _578  and  _580
REMARK  220  A    between atoms: _580  and  _581
REMARK  221  A    between atoms: _580  and  _583
REMARK  222  A    between atoms: _583  and  _584
REMARK  223  A    between atoms: _594  and  _596
REMARK  224  A    between atoms: _596  and  _597
REMARK  225  A    between atoms: _599  and  _601
REMARK  226  A    between atoms: _601  and  _602
REMARK  227  A    between atoms: _601  and  _604
REMARK  228  A    between atoms: _604  and  _605
REMARK  229  A    between atoms: _610  and  _612
REMARK  230  A    between atoms: _612  and  _613
REMARK  231  A    between atoms: _616  and  _618
REMARK  232  A    between atoms: _618  and  _619
REMARK  233  A    between atoms: _618  and  _621
REMARK  234  A    between atoms: _621  and  _622
REMARK  235  A    between atoms: _625  and  _627
REMARK  236  A    between atoms: _627  and  _628
REMARK  237  A    between atoms: _627  and  _630
REMARK  238  A    between atoms: _630  and  _631
REMARK  239  A    between atoms: _637  and  _639
REMARK  240  A    between atoms: _639  and  _640
REMARK  241  A    between atoms: _639  and  _642
REMARK  242  A    between atoms: _642  and  _643
REMARK  243  A    between atoms: _643  and  _644
REMARK  244  A    between atoms: _647  and  _649
REMARK  245  A    between atoms: _649  and  _650
REMARK  246  A    between atoms: _649  and  _652
REMARK  247  A    between atoms: _652  and  _653
REMARK  248  A    between atoms: _653  and  _654
REMARK  249  A    between atoms: _654  and  _655
REMARK                            x       y       z     vdW  Elec       q    Type
REMARK                         _______ _______ _______ _____ _____    ______ ____
ROOT
ATOM      1  O   HOH     1     -14.564  -5.694  18.156  0.00  0.00    +0.000 OA
ENDROOT
TORSDOF 0
REMARK  Name = ../refined-set-2016/3jzj/3jzj_pocket.pdb
REMARK  249 active torsions:
REMARK  status: ('A' for Active; 'I' for Inactive)
REMARK    1  A    between atoms: _1  and  _3
REMARK    2  A    between atoms: _3  and  _4
REMARK    3  A    between atoms: _3  and  _6
REMARK    4  A    between atoms: _6  and  _7
REMARK    5  A    between atoms: _10  and  _12
REMARK    6  A    between atoms: _12  and  _13
REMARK    7  A    between atoms: _12  and  _15
REMARK    8  A    between atoms: _15  and  _16
REMARK    9  A    between atoms: _19  and  _21
REMARK   10  A    between atoms: _21  and  _22
REMARK   11  A    between atoms: _21  and  _24
REMARK   12  A    between atoms: _24  and  _25
REMARK   13  A    between atoms: _27  and  _29
REMARK   14  A    between atoms: _29  and  _30
REMARK   15  A    between atoms: _29  and  _32
REMARK   16  A    between atoms: _32  and  _33
REMARK   17  A    between atoms: _38  and  _40
REMARK   18  A    between atoms: _40  and  _41
REMARK   19  A    between atoms: _40  and  _43
REMARK   20  A    between atoms: _43  and  _44
REMARK   21  A    between atoms: _44  and  _45
REMARK   22  A    between atoms: _48  and  _50
REMARK   23  A    between atoms: _50  and  _51
REMARK   24  A    between atoms: _54  and  _56
REMARK   25  A    between atoms: _56  and  _57
REMARK   26  A    between atoms: _56  and  _59
REMARK   27  A    between atoms: _59  and  _60
REMARK   28  A    between atoms: _60  and  _61
REMARK   29  A    between atoms: _64  and  _66
REMARK   30  A    between atoms: _66  and  _67
REMARK   31  A    between atoms: _66  and  _69
REMARK   32  A    between atoms: _69  and  _70
REMARK   33  A    between atoms: _70  and  _71
REMARK   34  A    between atoms: _71  and  _72
REMARK   35  A    between atoms: _72  and  _73
REMARK   36  A    between atoms: _77  and  _79
REMARK   37  A    between atoms: _79  and  _80
REMARK   38  A    between atoms: _79  and  _82
REMARK   39  A    between atoms: _82  and  _83
REMARK   40  A    between atoms: _88  and  _89
REMARK   41  A    between atoms: _91  and  _93
REMARK   42  A    between atoms: _93  and  _94
REMARK   43  A    between atoms: _93  and  _96
REMARK   44  A    between atoms: _96  and  _97
REMARK   45  A    between atoms: _102  and  _104
REMARK   46  A    between atoms: _104  and  _105
REMARK   47  A    between atoms: _104  and  _107
REMARK   48  A    between atoms: _111  and  _112
REMARK   49  A    between atoms: _117  and  _119
REMARK   50  A    between atoms: _119  and  _120
REMARK   51  A    between atoms: _119  and  _122
REMARK   52  A    between atoms: _122  and  _123
REMARK   53  A    between atoms: _129  and  _131
REMARK   54  A    between atoms: _131  and  _132
REMARK   55  A    between atoms: _134  and  _136
REMARK   56  A    between atoms: _136  and  _137
REMARK   57  A    between atoms: _136  and  _139
REMARK   58  A    between atoms: _139  and  _140
REMARK   59  A    between atoms: _140  and  _141
REMARK   60  A    between atoms: _144  and  _146
REMARK   61  A    between atoms: _146  and  _147
REMARK   62  A    between atoms: _150  and  _152
REMARK   63  A    between atoms: _152  and  _153
REMARK   64  A    between atoms: _152  and  _155
REMARK   65  A    between atoms: _155  and  _156
REMARK   66  A    between atoms: _161  and  _163
REMARK   67  A    between atoms: _163  and  _164
REMARK   68  A    between atoms: _167  and  _169
REMARK   69  A    between atoms: _169  and  _170
REMARK   70  A    between atoms: _169  and  _172
REMARK   71  A    between atoms: _172  and  _173
REMARK   72  A    between atoms: _173  and  _174
REMARK   73  A    between atoms: _174  and  _175
REMARK   74  A    between atoms: _175  and  _176
REMARK   75  A    between atoms: _180  and  _182
REMARK   76  A    between atoms: _182  and  _183
REMARK   77  A    between atoms: _182  and  _185
REMARK   78  A    between atoms: _185  and  _186
REMARK   79  A    between atoms: _186  and  _187
REMARK   80  A    between atoms: _187  and  _188
REMARK   81  A    between atoms: _188  and  _189
REMARK   82  A    between atoms: _193  and  _195
REMARK   83  A    between atoms: _195  and  _196
REMARK   84  A    between atoms: _195  and  _198
REMARK   85  A    between atoms: _198  and  _199
REMARK   86  A    between atoms: _199  and  _200
REMARK   87  A    between atoms: _200  and  _201
REMARK   88  A    between atoms: _210  and  _212
REMARK   89  A    between atoms: _212  and  _213
REMARK   90  A    between atoms: _212  and  _215
REMARK   91  A    between atoms: _215  and  _216
REMARK   92  A    between atoms: _216  and  _217
REMARK   93  A    between atoms: _220  and  _222
REMARK   94  A    between atoms: _222  and  _223
REMARK   95  A    between atoms: _222  and  _225
REMARK   96  A    between atoms: _228  and  _230
REMARK   97  A    between atoms: _230  and  _231
REMARK   98  A    between atoms: _234  and  _236
REMARK   99  A    between atoms: _236  and  _237
REMARK  100  A    between atoms: _236  and  _239
REMARK  101  A    between atoms: _239  and  _240
REMARK  102  A    between atoms: _250  and  _252
REMARK  103  A    between atoms: _252  and  _253
REMARK  104  A    between atoms: _252  and  _255
REMARK  105  A    between atoms: _258  and  _260
REMARK  106  A    between atoms: _260  and  _261
REMARK  107  A    between atoms: _260  and  _263
REMARK  108  A    between atoms: _263  and  _264
REMARK  109  A    between atoms: _267  and  _269
REMARK  110  A    between atoms: _269  and  _270
REMARK  111  A    between atoms: _269  and  _272
REMARK  112  A    between atoms: _272  and  _273
REMARK  113  A    between atoms: _279  and  _281
REMARK  114  A    between atoms: _281  and  _282
REMARK  115  A    between atoms: _281  and  _284
REMARK  116  A    between atoms: _284  and  _285
REMARK  117  A    between atoms: _285  and  _286
REMARK  118  A    between atoms: _291  and  _293
REMARK  119  A    between atoms: _293  and  _294
REMARK  120  A    between atoms: _293  and  _296
REMARK  121  A    between atoms: _299  and  _301
REMARK  122  A    between atoms: _301  and  _302
REMARK  123  A    between atoms: _301  and  _304
REMARK  124  A    between atoms: _304  and  _305
REMARK  125  A    between atoms: _308  and  _310
REMARK  126  A    between atoms: _310  and  _311
REMARK  127  A    between atoms: _310  and  _313
REMARK  128  A    between atoms: _313  and  _314
REMARK  129  A    between atoms: _317  and  _319
REMARK  130  A    between atoms: _319  and  _320
REMARK  131  A    between atoms: _319  and  _322
REMARK  132  A    between atoms: _322  and  _323
REMARK  133  A    between atoms: _326  and  _328
REMARK  134  A    between atoms: _328  and  _329
REMARK  135  A    between atoms: _328  and  _331
REMARK  136  A    between atoms: _331  and  _332
REMARK  137  A    between atoms: _335  and  _337
REMARK  138  A    between atoms: _337  and  _338
REMARK  139  A    between atoms: _337  and  _340
REMARK  140  A    between atoms: _340  and  _341
REMARK  141  A    between atoms: _341  and  _342
REMARK  142  A    between atoms: _342  and  _343
REMARK  143  A    between atoms: _352  and  _354
REMARK  144  A    between atoms: _354  and  _355
REMARK  145  A    between atoms: _354  and  _357
REMARK  146  A    between atoms: _357  and  _358
REMARK  147  A    between atoms: _361  and  _363
REMARK  148  A    between atoms: _363  and  _364
REMARK  149  A    between atoms: _363  and  _366
REMARK  150  A    between atoms: _366  and  _367
REMARK  151  A    between atoms: _371  and  _372
REMARK  152  A    between atoms: _377  and  _379
REMARK  153  A    between atoms: _379  and  _380
REMARK  154  A    between atoms: _379  and  _382
REMARK  155  A    between atoms: _382  and  _383
REMARK  156  A    between atoms: _388  and  _389
REMARK  157  A    between atoms: _391  and  _393
REMARK  158  A    between atoms: _393  and  _394
REMARK  159  A    between atoms: _393  and  _396
REMARK  160  A    between atoms: _396  and  _397
REMARK  161  A    between atoms: _407  and  _409
REMARK  162  A    between atoms: _409  and  _410
REMARK  163  A    between atoms: _409  and  _412
REMARK  164  A    between atoms: _412  and  _413
REMARK  165  A    between atoms: _419  and  _421
REMARK  166  A    between atoms: _421  and  _422
REMARK  167  A    between atoms: _421  and  _424
REMARK  168  A    between atoms: _424  and  _425
REMARK  169  A    between atoms: _428  and  _430
REMARK  170  A    between atoms: _430  and  _431
REMARK  171  A    between atoms: _430  and  _433
REMARK  172  A    between atoms: _433  and  _434
REMARK  173  A    between atoms: _444  and  _446
REMARK  174  A    between atoms: _446  and  _447
REMARK  175  A    between atoms: _446  and  _449
REMARK  176  A    between atoms: _449  and  _450
REMARK  177  A    between atoms: _450  and  _451
REMARK  178  A    between atoms: _453  and  _455
REMARK  179  A    between atoms: _455  and  _456
REMARK  180  A    between atoms: _455  and  _458
REMARK  181  A    between atoms: _458  and  _459
REMARK  182  A    between atoms: _464  and  _466
REMARK  183  A    between atoms: _466  and  _467
REMARK  184  A    between atoms: _470  and  _471
REMARK  185  A    between atoms: _476  and  _478
REMARK  186  A    between atoms: _478  and  _479
REMARK  187  A    between atoms: _478  and  _481
REMARK  188  A    between atoms: _481  and  _482
REMARK  189  A    between atoms: _492  and  _494
REMARK  190  A    between atoms: _494  and  _495
REMARK  191  A    between atoms: _499  and  _500
REMARK  192  A    between atoms: _505  and  _507
REMARK  193  A    between atoms: _507  and  _508
REMARK  194  A    between atoms: _507  and  _510
REMARK  195  A    between atoms: _510  and  _511
REMARK  196  A    between atoms: _511  and  _512
REMARK  197  A    between atoms: _517  and  _519
REMARK  198  A    between atoms: _519  and  _520
REMARK  199  A    between atoms: _522  and  _524
REMARK  200  A    between atoms: _524  and  _525
REMARK  201  A    between atoms: _527  and  _529
REMARK  202  A    between atoms: _529  and  _530
REMARK  203  A    between atoms: _529  and  _532
REMARK  204  A    between atoms: _532  and  _533
REMARK  205  A    between atoms: _543  and  _545
REMARK  206  A    between atoms: _545  and  _546
REMARK  207  A    between atoms: _545  and  _548
REMARK  208  A    between atoms: _548  and  _549
REMARK  209  A    between atoms: _552  and  _554
REMARK  210  A    between atoms: _554  and  _555
REMARK  211  A    between atoms: _554  and  _557
REMARK  212  A    between atoms: _557  and  _558
REMARK  213  A    between atoms: _561  and  _563
REMARK  214  A    between atoms: _563  and  _564
REMARK  215  A    between atoms: _563  and  _566
REMARK  216  A    between atoms: _566  and  _567
REMARK  217  A    between atoms: _567  and  _568
REMARK  218  A    between atoms: _568  and  _569
REMARK  219  A    between atoms: _578  and  _580
REMARK  220  A    between atoms: _580  and  _581
REMARK  221  A    between atoms: _580  and  _583
REMARK  222  A    between atoms: _583  and  _584
REMARK  223  A    between atoms: _594  and  _596
REMARK  224  A    between atoms: _596  and  _597
REMARK  225  A    between atoms: _599  and  _601
REMARK  226  A    between atoms: _601  and  _602
REMARK  227  A    between atoms: _601  and  _604
REMARK  228  A    between atoms: _604  and  _605
REMARK  229  A    between atoms: _610  and  _612
REMARK  230  A    between atoms: _612  and  _613
REMARK  231  A    between atoms: _616  and  _618
REMARK  232  A    between atoms: _618  and  _619
REMARK  233  A    between atoms: _618  and  _621
REMARK  234  A    between atoms: _621  and  _622
REMARK  235  A    between atoms: _625  and  _627
REMARK  236  A    between atoms: _627  and  _628
REMARK  237  A    between atoms: _627  and  _630
REMARK  238  A    between atoms: _630  and  _631
REMARK  239  A    between atoms: _637  and  _639
REMARK  240  A    between atoms: _639  and  _640
REMARK  241  A    between atoms: _639  and  _642
REMARK  242  A    between atoms: _642  and  _643
REMARK  243  A    between atoms: _643  and  _644
REMARK  244  A    between atoms: _647  and  _649
REMARK  245  A    between atoms: _649  and  _650
REMARK  246  A    between atoms: _649  and  _652
REMARK  247  A    between atoms: _652  and  _653
REMARK  248  A    between atoms: _653  and  _654
REMARK  249  A    between atoms: _654  and  _655
REMARK                            x       y       z     vdW  Elec       q    Type
REMARK                         _______ _______ _______ _____ _____    ______ ____
ROOT
ATOM      1  O   HOH     1     -11.207  -3.513  13.534  0.00  0.00    +0.000 OA
ENDROOT
TORSDOF 0
REMARK  Name = ../refined-set-2016/3jzj/3jzj_pocket.pdb
REMARK  249 active torsions:
REMARK  status: ('A' for Active; 'I' for Inactive)
REMARK    1  A    between atoms: _1  and  _3
REMARK    2  A    between atoms: _3  and  _4
REMARK    3  A    between atoms: _3  and  _6
REMARK    4  A    between atoms: _6  and  _7
REMARK    5  A    between atoms: _10  and  _12
REMARK    6  A    between atoms: _12  and  _13
REMARK    7  A    between atoms: _12  and  _15
REMARK    8  A    between atoms: _15  and  _16
REMARK    9  A    between atoms: _19  and  _21
REMARK   10  A    between atoms: _21  and  _22
REMARK   11  A    between atoms: _21  and  _24
REMARK   12  A    between atoms: _24  and  _25
REMARK   13  A    between atoms: _27  and  _29
REMARK   14  A    between atoms: _29  and  _30
REMARK   15  A    between atoms: _29  and  _32
REMARK   16  A    between atoms: _32  and  _33
REMARK   17  A    between atoms: _38  and  _40
REMARK   18  A    between atoms: _40  and  _41
REMARK   19  A    between atoms: _40  and  _43
REMARK   20  A    between atoms: _43  and  _44
REMARK   21  A    between atoms: _44  and  _45
REMARK   22  A    between atoms: _48  and  _50
REMARK   23  A    between atoms: _50  and  _51
REMARK   24  A    between atoms: _54  and  _56
REMARK   25  A    between atoms: _56  and  _57
REMARK   26  A    between atoms: _56  and  _59
REMARK   27  A    between atoms: _59  and  _60
REMARK   28  A    between atoms: _60  and  _61
REMARK   29  A    between atoms: _64  and  _66
REMARK   30  A    between atoms: _66  and  _67
REMARK   31  A    between atoms: _66  and  _69
REMARK   32  A    between atoms: _69  and  _70
REMARK   33  A    between atoms: _70  and  _71
REMARK   34  A    between atoms: _71  and  _72
REMARK   35  A    between atoms: _72  and  _73
REMARK   36  A    between atoms: _77  and  _79
REMARK   37  A    between atoms: _79  and  _80
REMARK   38  A    between atoms: _79  and  _82
REMARK   39  A    between atoms: _82  and  _83
REMARK   40  A    between atoms: _88  and  _89
REMARK   41  A    between atoms: _91  and  _93
REMARK   42  A    between atoms: _93  and  _94
REMARK   43  A    between atoms: _93  and  _96
REMARK   44  A    between atoms: _96  and  _97
REMARK   45  A    between atoms: _102  and  _104
REMARK   46  A    between atoms: _104  and  _105
REMARK   47  A    between atoms: _104  and  _107
REMARK   48  A    between atoms: _111  and  _112
REMARK   49  A    between atoms: _117  and  _119
REMARK   50  A    between atoms: _119  and  _120
REMARK   51  A    between atoms: _119  and  _122
REMARK   52  A    between atoms: _122  and  _123
REMARK   53  A    between atoms: _129  and  _131
REMARK   54  A    between atoms: _131  and  _132
REMARK   55  A    between atoms: _134  and  _136
REMARK   56  A    between atoms: _136  and  _137
REMARK   57  A    between atoms: _136  and  _139
REMARK   58  A    between atoms: _139  and  _140
REMARK   59  A    between atoms: _140  and  _141
REMARK   60  A    between atoms: _144  and  _146
REMARK   61  A    between atoms: _146  and  _147
REMARK   62  A    between atoms: _150  and  _152
REMARK   63  A    between atoms: _152  and  _153
REMARK   64  A    between atoms: _152  and  _155
REMARK   65  A    between atoms: _155  and  _156
REMARK   66  A    between atoms: _161  and  _163
REMARK   67  A    between atoms: _163  and  _164
REMARK   68  A    between atoms: _167  and  _169
REMARK   69  A    between atoms: _169  and  _170
REMARK   70  A    between atoms: _169  and  _172
REMARK   71  A    between atoms: _172  and  _173
REMARK   72  A    between atoms: _173  and  _174
REMARK   73  A    between atoms: _174  and  _175
REMARK   74  A    between atoms: _175  and  _176
REMARK   75  A    between atoms: _180  and  _182
REMARK   76  A    between atoms: _182  and  _183
REMARK   77  A    between atoms: _182  and  _185
REMARK   78  A    between atoms: _185  and  _186
REMARK   79  A    between atoms: _186  and  _187
REMARK   80  A    between atoms: _187  and  _188
REMARK   81  A    between atoms: _188  and  _189
REMARK   82  A    between atoms: _193  and  _195
REMARK   83  A    between atoms: _195  and  _196
REMARK   84  A    between atoms: _195  and  _198
REMARK   85  A    between atoms: _198  and  _199
REMARK   86  A    between atoms: _199  and  _200
REMARK   87  A    between atoms: _200  and  _201
REMARK   88  A    between atoms: _210  and  _212
REMARK   89  A    between atoms: _212  and  _213
REMARK   90  A    between atoms: _212  and  _215
REMARK   91  A    between atoms: _215  and  _216
REMARK   92  A    between atoms: _216  and  _217
REMARK   93  A    between atoms: _220  and  _222
REMARK   94  A    between atoms: _222  and  _223
REMARK   95  A    between atoms: _222  and  _225
REMARK   96  A    between atoms: _228  and  _230
REMARK   97  A    between atoms: _230  and  _231
REMARK   98  A    between atoms: _234  and  _236
REMARK   99  A    between atoms: _236  and  _237
REMARK  100  A    between atoms: _236  and  _239
REMARK  101  A    between atoms: _239  and  _240
REMARK  102  A    between atoms: _250  and  _252
REMARK  103  A    between atoms: _252  and  _253
REMARK  104  A    between atoms: _252  and  _255
REMARK  105  A    between atoms: _258  and  _260
REMARK  106  A    between atoms: _260  and  _261
REMARK  107  A    between atoms: _260  and  _263
REMARK  108  A    between atoms: _263  and  _264
REMARK  109  A    between atoms: _267  and  _269
REMARK  110  A    between atoms: _269  and  _270
REMARK  111  A    between atoms: _269  and  _272
REMARK  112  A    between atoms: _272  and  _273
REMARK  113  A    between atoms: _279  and  _281
REMARK  114  A    between atoms: _281  and  _282
REMARK  115  A    between atoms: _281  and  _284
REMARK  116  A    between atoms: _284  and  _285
REMARK  117  A    between atoms: _285  and  _286
REMARK  118  A    between atoms: _291  and  _293
REMARK  119  A    between atoms: _293  and  _294
REMARK  120  A    between atoms: _293  and  _296
REMARK  121  A    between atoms: _299  and  _301
REMARK  122  A    between atoms: _301  and  _302
REMARK  123  A    between atoms: _301  and  _304
REMARK  124  A    between atoms: _304  and  _305
REMARK  125  A    between atoms: _308  and  _310
REMARK  126  A    between atoms: _310  and  _311
REMARK  127  A    between atoms: _310  and  _313
REMARK  128  A    between atoms: _313  and  _314
REMARK  129  A    between atoms: _317  and  _319
REMARK  130  A    between atoms: _319  and  _320
REMARK  131  A    between atoms: _319  and  _322
REMARK  132  A    between atoms: _322  and  _323
REMARK  133  A    between atoms: _326  and  _328
REMARK  134  A    between atoms: _328  and  _329
REMARK  135  A    between atoms: _328  and  _331
REMARK  136  A    between atoms: _331  and  _332
REMARK  137  A    between atoms: _335  and  _337
REMARK  138  A    between atoms: _337  and  _338
REMARK  139  A    between atoms: _337  and  _340
REMARK  140  A    between atoms: _340  and  _341
REMARK  141  A    between atoms: _341  and  _342
REMARK  142  A    between atoms: _342  and  _343
REMARK  143  A    between atoms: _352  and  _354
REMARK  144  A    between atoms: _354  and  _355
REMARK  145  A    between atoms: _354  and  _357
REMARK  146  A    between atoms: _357  and  _358
REMARK  147  A    between atoms: _361  and  _363
REMARK  148  A    between atoms: _363  and  _364
REMARK  149  A    between atoms: _363  and  _366
REMARK  150  A    between atoms: _366  and  _367
REMARK  151  A    between atoms: _371  and  _372
REMARK  152  A    between atoms: _377  and  _379
REMARK  153  A    between atoms: _379  and  _380
REMARK  154  A    between atoms: _379  and  _382
REMARK  155  A    between atoms: _382  and  _383
REMARK  156  A    between atoms: _388  and  _389
REMARK  157  A    between atoms: _391  and  _393
REMARK  158  A    between atoms: _393  and  _394
REMARK  159  A    between atoms: _393  and  _396
REMARK  160  A    between atoms: _396  and  _397
REMARK  161  A    between atoms: _407  and  _409
REMARK  162  A    between atoms: _409  and  _410
REMARK  163  A    between atoms: _409  and  _412
REMARK  164  A    between atoms: _412  and  _413
REMARK  165  A    between atoms: _419  and  _421
REMARK  166  A    between atoms: _421  and  _422
REMARK  167  A    between atoms: _421  and  _424
REMARK  168  A    between atoms: _424  and  _425
REMARK  169  A    between atoms: _428  and  _430
REMARK  170  A    between atoms: _430  and  _431
REMARK  171  A    between atoms: _430  and  _433
REMARK  172  A    between atoms: _433  and  _434
REMARK  173  A    between atoms: _444  and  _446
REMARK  174  A    between atoms: _446  and  _447
REMARK  175  A    between atoms: _446  and  _449
REMARK  176  A    between atoms: _449  and  _450
REMARK  177  A    between atoms: _450  and  _451
REMARK  178  A    between atoms: _453  and  _455
REMARK  179  A    between atoms: _455  and  _456
REMARK  180  A    between atoms: _455  and  _458
REMARK  181  A    between atoms: _458  and  _459
REMARK  182  A    between atoms: _464  and  _466
REMARK  183  A    between atoms: _466  and  _467
REMARK  184  A    between atoms: _470  and  _471
REMARK  185  A    between atoms: _476  and  _478
REMARK  186  A    between atoms: _478  and  _479
REMARK  187  A    between atoms: _478  and  _481
REMARK  188  A    between atoms: _481  and  _482
REMARK  189  A    between atoms: _492  and  _494
REMARK  190  A    between atoms: _494  and  _495
REMARK  191  A    between atoms: _499  and  _500
REMARK  192  A    between atoms: _505  and  _507
REMARK  193  A    between atoms: _507  and  _508
REMARK  194  A    between atoms: _507  and  _510
REMARK  195  A    between atoms: _510  and  _511
REMARK  196  A    between atoms: _511  and  _512
REMARK  197  A    between atoms: _517  and  _519
REMARK  198  A    between atoms: _519  and  _520
REMARK  199  A    between atoms: _522  and  _524
REMARK  200  A    between atoms: _524  and  _525
REMARK  201  A    between atoms: _527  and  _529
REMARK  202  A    between atoms: _529  and  _530
REMARK  203  A    between atoms: _529  and  _532
REMARK  204  A    between atoms: _532  and  _533
REMARK  205  A    between atoms: _543  and  _545
REMARK  206  A    between atoms: _545  and  _546
REMARK  207  A    between atoms: _545  and  _548
REMARK  208  A    between atoms: _548  and  _549
REMARK  209  A    between atoms: _552  and  _554
REMARK  210  A    between atoms: _554  and  _555
REMARK  211  A    between atoms: _554  and  _557
REMARK  212  A    between atoms: _557  and  _558
REMARK  213  A    between atoms: _561  and  _563
REMARK  214  A    between atoms: _563  and  _564
REMARK  215  A    between atoms: _563  and  _566
REMARK  216  A    between atoms: _566  and  _567
REMARK  217  A    between atoms: _567  and  _568
REMARK  218  A    between atoms: _568  and  _569
REMARK  219  A    between atoms: _578  and  _580
REMARK  220  A    between atoms: _580  and  _581
REMARK  221  A    between atoms: _580  and  _583
REMARK  222  A    between atoms: _583  and  _584
REMARK  223  A    between atoms: _594  and  _596
REMARK  224  A    between atoms: _596  and  _597
REMARK  225  A    between atoms: _599  and  _601
REMARK  226  A    between atoms: _601  and  _602
REMARK  227  A    between atoms: _601  and  _604
REMARK  228  A    between atoms: _604  and  _605
REMARK  229  A    between atoms: _610  and  _612
REMARK  230  A    between atoms: _612  and  _613
REMARK  231  A    between atoms: _616  and  _618
REMARK  232  A    between atoms: _618  and  _619
REMARK  233  A    between atoms: _618  and  _621
REMARK  234  A    between atoms: _621  and  _622
REMARK  235  A    between atoms: _625  and  _627
REMARK  236  A    between atoms: _627  and  _628
REMARK  237  A    between atoms: _627  and  _630
REMARK  238  A    between atoms: _630  and  _631
REMARK  239  A    between atoms: _637  and  _639
REMARK  240  A    between atoms: _639  and  _640
REMARK  241  A    between atoms: _639  and  _642
REMARK  242  A    between atoms: _642  and  _643
REMARK  243  A    between atoms: _643  and  _644
REMARK  244  A    between atoms: _647  and  _649
REMARK  245  A    between atoms: _649  and  _650
REMARK  246  A    between atoms: _649  and  _652
REMARK  247  A    between atoms: _652  and  _653
REMARK  248  A    between atoms: _653  and  _654
REMARK  249  A    between atoms: _654  and  _655
REMARK                            x       y       z     vdW  Elec       q    Type
REMARK                         _______ _______ _______ _____ _____    ______ ____
ROOT
ATOM      1  O   HOH     1      -4.183 -20.073  18.989  0.00  0.00    +0.000 OA
ENDROOT
TORSDOF 0
REMARK  Name = ../refined-set-2016/3jzj/3jzj_pocket.pdb
REMARK  249 active torsions:
REMARK  status: ('A' for Active; 'I' for Inactive)
REMARK    1  A    between atoms: _1  and  _3
REMARK    2  A    between atoms: _3  and  _4
REMARK    3  A    between atoms: _3  and  _6
REMARK    4  A    between atoms: _6  and  _7
REMARK    5  A    between atoms: _10  and  _12
REMARK    6  A    between atoms: _12  and  _13
REMARK    7  A    between atoms: _12  and  _15
REMARK    8  A    between atoms: _15  and  _16
REMARK    9  A    between atoms: _19  and  _21
REMARK   10  A    between atoms: _21  and  _22
REMARK   11  A    between atoms: _21  and  _24
REMARK   12  A    between atoms: _24  and  _25
REMARK   13  A    between atoms: _27  and  _29
REMARK   14  A    between atoms: _29  and  _30
REMARK   15  A    between atoms: _29  and  _32
REMARK   16  A    between atoms: _32  and  _33
REMARK   17  A    between atoms: _38  and  _40
REMARK   18  A    between atoms: _40  and  _41
REMARK   19  A    between atoms: _40  and  _43
REMARK   20  A    between atoms: _43  and  _44
REMARK   21  A    between atoms: _44  and  _45
REMARK   22  A    between atoms: _48  and  _50
REMARK   23  A    between atoms: _50  and  _51
REMARK   24  A    between atoms: _54  and  _56
REMARK   25  A    between atoms: _56  and  _57
REMARK   26  A    between atoms: _56  and  _59
REMARK   27  A    between atoms: _59  and  _60
REMARK   28  A    between atoms: _60  and  _61
REMARK   29  A    between atoms: _64  and  _66
REMARK   30  A    between atoms: _66  and  _67
REMARK   31  A    between atoms: _66  and  _69
REMARK   32  A    between atoms: _69  and  _70
REMARK   33  A    between atoms: _70  and  _71
REMARK   34  A    between atoms: _71  and  _72
REMARK   35  A    between atoms: _72  and  _73
REMARK   36  A    between atoms: _77  and  _79
REMARK   37  A    between atoms: _79  and  _80
REMARK   38  A    between atoms: _79  and  _82
REMARK   39  A    between atoms: _82  and  _83
REMARK   40  A    between atoms: _88  and  _89
REMARK   41  A    between atoms: _91  and  _93
REMARK   42  A    between atoms: _93  and  _94
REMARK   43  A    between atoms: _93  and  _96
REMARK   44  A    between atoms: _96  and  _97
REMARK   45  A    between atoms: _102  and  _104
REMARK   46  A    between atoms: _104  and  _105
REMARK   47  A    between atoms: _104  and  _107
REMARK   48  A    between atoms: _111  and  _112
REMARK   49  A    between atoms: _117  and  _119
REMARK   50  A    between atoms: _119  and  _120
REMARK   51  A    between atoms: _119  and  _122
REMARK   52  A    between atoms: _122  and  _123
REMARK   53  A    between atoms: _129  and  _131
REMARK   54  A    between atoms: _131  and  _132
REMARK   55  A    between atoms: _134  and  _136
REMARK   56  A    between atoms: _136  and  _137
REMARK   57  A    between atoms: _136  and  _139
REMARK   58  A    between atoms: _139  and  _140
REMARK   59  A    between atoms: _140  and  _141
REMARK   60  A    between atoms: _144  and  _146
REMARK   61  A    between atoms: _146  and  _147
REMARK   62  A    between atoms: _150  and  _152
REMARK   63  A    between atoms: _152  and  _153
REMARK   64  A    between atoms: _152  and  _155
REMARK   65  A    between atoms: _155  and  _156
REMARK   66  A    between atoms: _161  and  _163
REMARK   67  A    between atoms: _163  and  _164
REMARK   68  A    between atoms: _167  and  _169
REMARK   69  A    between atoms: _169  and  _170
REMARK   70  A    between atoms: _169  and  _172
REMARK   71  A    between atoms: _172  and  _173
REMARK   72  A    between atoms: _173  and  _174
REMARK   73  A    between atoms: _174  and  _175
REMARK   74  A    between atoms: _175  and  _176
REMARK   75  A    between atoms: _180  and  _182
REMARK   76  A    between atoms: _182  and  _183
REMARK   77  A    between atoms: _182  and  _185
REMARK   78  A    between atoms: _185  and  _186
REMARK   79  A    between atoms: _186  and  _187
REMARK   80  A    between atoms: _187  and  _188
REMARK   81  A    between atoms: _188  and  _189
REMARK   82  A    between atoms: _193  and  _195
REMARK   83  A    between atoms: _195  and  _196
REMARK   84  A    between atoms: _195  and  _198
REMARK   85  A    between atoms: _198  and  _199
REMARK   86  A    between atoms: _199  and  _200
REMARK   87  A    between atoms: _200  and  _201
REMARK   88  A    between atoms: _210  and  _212
REMARK   89  A    between atoms: _212  and  _213
REMARK   90  A    between atoms: _212  and  _215
REMARK   91  A    between atoms: _215  and  _216
REMARK   92  A    between atoms: _216  and  _217
REMARK   93  A    between atoms: _220  and  _222
REMARK   94  A    between atoms: _222  and  _223
REMARK   95  A    between atoms: _222  and  _225
REMARK   96  A    between atoms: _228  and  _230
REMARK   97  A    between atoms: _230  and  _231
REMARK   98  A    between atoms: _234  and  _236
REMARK   99  A    between atoms: _236  and  _237
REMARK  100  A    between atoms: _236  and  _239
REMARK  101  A    between atoms: _239  and  _240
REMARK  102  A    between atoms: _250  and  _252
REMARK  103  A    between atoms: _252  and  _253
REMARK  104  A    between atoms: _252  and  _255
REMARK  105  A    between atoms: _258  and  _260
REMARK  106  A    between atoms: _260  and  _261
REMARK  107  A    between atoms: _260  and  _263
REMARK  108  A    between atoms: _263  and  _264
REMARK  109  A    between atoms: _267  and  _269
REMARK  110  A    between atoms: _269  and  _270
REMARK  111  A    between atoms: _269  and  _272
REMARK  112  A    between atoms: _272  and  _273
REMARK  113  A    between atoms: _279  and  _281
REMARK  114  A    between atoms: _281  and  _282
REMARK  115  A    between atoms: _281  and  _284
REMARK  116  A    between atoms: _284  and  _285
REMARK  117  A    between atoms: _285  and  _286
REMARK  118  A    between atoms: _291  and  _293
REMARK  119  A    between atoms: _293  and  _294
REMARK  120  A    between atoms: _293  and  _296
REMARK  121  A    between atoms: _299  and  _301
REMARK  122  A    between atoms: _301  and  _302
REMARK  123  A    between atoms: _301  and  _304
REMARK  124  A    between atoms: _304  and  _305
REMARK  125  A    between atoms: _308  and  _310
REMARK  126  A    between atoms: _310  and  _311
REMARK  127  A    between atoms: _310  and  _313
REMARK  128  A    between atoms: _313  and  _314
REMARK  129  A    between atoms: _317  and  _319
REMARK  130  A    between atoms: _319  and  _320
REMARK  131  A    between atoms: _319  and  _322
REMARK  132  A    between atoms: _322  and  _323
REMARK  133  A    between atoms: _326  and  _328
REMARK  134  A    between atoms: _328  and  _329
REMARK  135  A    between atoms: _328  and  _331
REMARK  136  A    between atoms: _331  and  _332
REMARK  137  A    between atoms: _335  and  _337
REMARK  138  A    between atoms: _337  and  _338
REMARK  139  A    between atoms: _337  and  _340
REMARK  140  A    between atoms: _340  and  _341
REMARK  141  A    between atoms: _341  and  _342
REMARK  142  A    between atoms: _342  and  _343
REMARK  143  A    between atoms: _352  and  _354
REMARK  144  A    between atoms: _354  and  _355
REMARK  145  A    between atoms: _354  and  _357
REMARK  146  A    between atoms: _357  and  _358
REMARK  147  A    between atoms: _361  and  _363
REMARK  148  A    between atoms: _363  and  _364
REMARK  149  A    between atoms: _363  and  _366
REMARK  150  A    between atoms: _366  and  _367
REMARK  151  A    between atoms: _371  and  _372
REMARK  152  A    between atoms: _377  and  _379
REMARK  153  A    between atoms: _379  and  _380
REMARK  154  A    between atoms: _379  and  _382
REMARK  155  A    between atoms: _382  and  _383
REMARK  156  A    between atoms: _388  and  _389
REMARK  157  A    between atoms: _391  and  _393
REMARK  158  A    between atoms: _393  and  _394
REMARK  159  A    between atoms: _393  and  _396
REMARK  160  A    between atoms: _396  and  _397
REMARK  161  A    between atoms: _407  and  _409
REMARK  162  A    between atoms: _409  and  _410
REMARK  163  A    between atoms: _409  and  _412
REMARK  164  A    between atoms: _412  and  _413
REMARK  165  A    between atoms: _419  and  _421
REMARK  166  A    between atoms: _421  and  _422
REMARK  167  A    between atoms: _421  and  _424
REMARK  168  A    between atoms: _424  and  _425
REMARK  169  A    between atoms: _428  and  _430
REMARK  170  A    between atoms: _430  and  _431
REMARK  171  A    between atoms: _430  and  _433
REMARK  172  A    between atoms: _433  and  _434
REMARK  173  A    between atoms: _444  and  _446
REMARK  174  A    between atoms: _446  and  _447
REMARK  175  A    between atoms: _446  and  _449
REMARK  176  A    between atoms: _449  and  _450
REMARK  177  A    between atoms: _450  and  _451
REMARK  178  A    between atoms: _453  and  _455
REMARK  179  A    between atoms: _455  and  _456
REMARK  180  A    between atoms: _455  and  _458
REMARK  181  A    between atoms: _458  and  _459
REMARK  182  A    between atoms: _464  and  _466
REMARK  183  A    between atoms: _466  and  _467
REMARK  184  A    between atoms: _470  and  _471
REMARK  185  A    between atoms: _476  and  _478
REMARK  186  A    between atoms: _478  and  _479
REMARK  187  A    between atoms: _478  and  _481
REMARK  188  A    between atoms: _481  and  _482
REMARK  189  A    between atoms: _492  and  _494
REMARK  190  A    between atoms: _494  and  _495
REMARK  191  A    between atoms: _499  and  _500
REMARK  192  A    between atoms: _505  and  _507
REMARK  193  A    between atoms: _507  and  _508
REMARK  194  A    between atoms: _507  and  _510
REMARK  195  A    between atoms: _510  and  _511
REMARK  196  A    between atoms: _511  and  _512
REMARK  197  A    between atoms: _517  and  _519
REMARK  198  A    between atoms: _519  and  _520
REMARK  199  A    between atoms: _522  and  _524
REMARK  200  A    between atoms: _524  and  _525
REMARK  201  A    between atoms: _527  and  _529
REMARK  202  A    between atoms: _529  and  _530
REMARK  203  A    between atoms: _529  and  _532
REMARK  204  A    between atoms: _532  and  _533
REMARK  205  A    between atoms: _543  and  _545
REMARK  206  A    between atoms: _545  and  _546
REMARK  207  A    between atoms: _545  and  _548
REMARK  208  A    between atoms: _548  and  _549
REMARK  209  A    between atoms: _552  and  _554
REMARK  210  A    between atoms: _554  and  _555
REMARK  211  A    between atoms: _554  and  _557
REMARK  212  A    between atoms: _557  and  _558
REMARK  213  A    between atoms: _561  and  _563
REMARK  214  A    between atoms: _563  and  _564
REMARK  215  A    between atoms: _563  and  _566
REMARK  216  A    between atoms: _566  and  _567
REMARK  217  A    between atoms: _567  and  _568
REMARK  218  A    between atoms: _568  and  _569
REMARK  219  A    between atoms: _578  and  _580
REMARK  220  A    between atoms: _580  and  _581
REMARK  221  A    between atoms: _580  and  _583
REMARK  222  A    between atoms: _583  and  _584
REMARK  223  A    between atoms: _594  and  _596
REMARK  224  A    between atoms: _596  and  _597
REMARK  225  A    between atoms: _599  and  _601
REMARK  226  A    between atoms: _601  and  _602
REMARK  227  A    between atoms: _601  and  _604
REMARK  228  A    between atoms: _604  and  _605
REMARK  229  A    between atoms: _610  and  _612
REMARK  230  A    between atoms: _612  and  _613
REMARK  231  A    between atoms: _616  and  _618
REMARK  232  A    between atoms: _618  and  _619
REMARK  233  A    between atoms: _618  and  _621
REMARK  234  A    between atoms: _621  and  _622
REMARK  235  A    between atoms: _625  and  _627
REMARK  236  A    between atoms: _627  and  _628
REMARK  237  A    between atoms: _627  and  _630
REMARK  238  A    between atoms: _630  and  _631
REMARK  239  A    between atoms: _637  and  _639
REMARK  240  A    between atoms: _639  and  _640
REMARK  241  A    between atoms: _639  and  _642
REMARK  242  A    between atoms: _642  and  _643
REMARK  243  A    between atoms: _643  and  _644
REMARK  244  A    between atoms: _647  and  _649
REMARK  245  A    between atoms: _649  and  _650
REMARK  246  A    between atoms: _649  and  _652
REMARK  247  A    between atoms: _652  and  _653
REMARK  248  A    between atoms: _653  and  _654
REMARK  249  A    between atoms: _654  and  _655
REMARK                            x       y       z     vdW  Elec       q    Type
REMARK                         _______ _______ _______ _____ _____    ______ ____
ROOT
ATOM      1  O   HOH     1     -14.236  -4.676  16.209  0.00  0.00    +0.000 OA
ENDROOT
TORSDOF 0
REMARK  Name = ../refined-set-2016/3jzj/3jzj_pocket.pdb
REMARK  249 active torsions:
REMARK  status: ('A' for Active; 'I' for Inactive)
REMARK    1  A    between atoms: _1  and  _3
REMARK    2  A    between atoms: _3  and  _4
REMARK    3  A    between atoms: _3  and  _6
REMARK    4  A    between atoms: _6  and  _7
REMARK    5  A    between atoms: _10  and  _12
REMARK    6  A    between atoms: _12  and  _13
REMARK    7  A    between atoms: _12  and  _15
REMARK    8  A    between atoms: _15  and  _16
REMARK    9  A    between atoms: _19  and  _21
REMARK   10  A    between atoms: _21  and  _22
REMARK   11  A    between atoms: _21  and  _24
REMARK   12  A    between atoms: _24  and  _25
REMARK   13  A    between atoms: _27  and  _29
REMARK   14  A    between atoms: _29  and  _30
REMARK   15  A    between atoms: _29  and  _32
REMARK   16  A    between atoms: _32  and  _33
REMARK   17  A    between atoms: _38  and  _40
REMARK   18  A    between atoms: _40  and  _41
REMARK   19  A    between atoms: _40  and  _43
REMARK   20  A    between atoms: _43  and  _44
REMARK   21  A    between atoms: _44  and  _45
REMARK   22  A    between atoms: _48  and  _50
REMARK   23  A    between atoms: _50  and  _51
REMARK   24  A    between atoms: _54  and  _56
REMARK   25  A    between atoms: _56  and  _57
REMARK   26  A    between atoms: _56  and  _59
REMARK   27  A    between atoms: _59  and  _60
REMARK   28  A    between atoms: _60  and  _61
REMARK   29  A    between atoms: _64  and  _66
REMARK   30  A    between atoms: _66  and  _67
REMARK   31  A    between atoms: _66  and  _69
REMARK   32  A    between atoms: _69  and  _70
REMARK   33  A    between atoms: _70  and  _71
REMARK   34  A    between atoms: _71  and  _72
REMARK   35  A    between atoms: _72  and  _73
REMARK   36  A    between atoms: _77  and  _79
REMARK   37  A    between atoms: _79  and  _80
REMARK   38  A    between atoms: _79  and  _82
REMARK   39  A    between atoms: _82  and  _83
REMARK   40  A    between atoms: _88  and  _89
REMARK   41  A    between atoms: _91  and  _93
REMARK   42  A    between atoms: _93  and  _94
REMARK   43  A    between atoms: _93  and  _96
REMARK   44  A    between atoms: _96  and  _97
REMARK   45  A    between atoms: _102  and  _104
REMARK   46  A    between atoms: _104  and  _105
REMARK   47  A    between atoms: _104  and  _107
REMARK   48  A    between atoms: _111  and  _112
REMARK   49  A    between atoms: _117  and  _119
REMARK   50  A    between atoms: _119  and  _120
REMARK   51  A    between atoms: _119  and  _122
REMARK   52  A    between atoms: _122  and  _123
REMARK   53  A    between atoms: _129  and  _131
REMARK   54  A    between atoms: _131  and  _132
REMARK   55  A    between atoms: _134  and  _136
REMARK   56  A    between atoms: _136  and  _137
REMARK   57  A    between atoms: _136  and  _139
REMARK   58  A    between atoms: _139  and  _140
REMARK   59  A    between atoms: _140  and  _141
REMARK   60  A    between atoms: _144  and  _146
REMARK   61  A    between atoms: _146  and  _147
REMARK   62  A    between atoms: _150  and  _152
REMARK   63  A    between atoms: _152  and  _153
REMARK   64  A    between atoms: _152  and  _155
REMARK   65  A    between atoms: _155  and  _156
REMARK   66  A    between atoms: _161  and  _163
REMARK   67  A    between atoms: _163  and  _164
REMARK   68  A    between atoms: _167  and  _169
REMARK   69  A    between atoms: _169  and  _170
REMARK   70  A    between atoms: _169  and  _172
REMARK   71  A    between atoms: _172  and  _173
REMARK   72  A    between atoms: _173  and  _174
REMARK   73  A    between atoms: _174  and  _175
REMARK   74  A    between atoms: _175  and  _176
REMARK   75  A    between atoms: _180  and  _182
REMARK   76  A    between atoms: _182  and  _183
REMARK   77  A    between atoms: _182  and  _185
REMARK   78  A    between atoms: _185  and  _186
REMARK   79  A    between atoms: _186  and  _187
REMARK   80  A    between atoms: _187  and  _188
REMARK   81  A    between atoms: _188  and  _189
REMARK   82  A    between atoms: _193  and  _195
REMARK   83  A    between atoms: _195  and  _196
REMARK   84  A    between atoms: _195  and  _198
REMARK   85  A    between atoms: _198  and  _199
REMARK   86  A    between atoms: _199  and  _200
REMARK   87  A    between atoms: _200  and  _201
REMARK   88  A    between atoms: _210  and  _212
REMARK   89  A    between atoms: _212  and  _213
REMARK   90  A    between atoms: _212  and  _215
REMARK   91  A    between atoms: _215  and  _216
REMARK   92  A    between atoms: _216  and  _217
REMARK   93  A    between atoms: _220  and  _222
REMARK   94  A    between atoms: _222  and  _223
REMARK   95  A    between atoms: _222  and  _225
REMARK   96  A    between atoms: _228  and  _230
REMARK   97  A    between atoms: _230  and  _231
REMARK   98  A    between atoms: _234  and  _236
REMARK   99  A    between atoms: _236  and  _237
REMARK  100  A    between atoms: _236  and  _239
REMARK  101  A    between atoms: _239  and  _240
REMARK  102  A    between atoms: _250  and  _252
REMARK  103  A    between atoms: _252  and  _253
REMARK  104  A    between atoms: _252  and  _255
REMARK  105  A    between atoms: _258  and  _260
REMARK  106  A    between atoms: _260  and  _261
REMARK  107  A    between atoms: _260  and  _263
REMARK  108  A    between atoms: _263  and  _264
REMARK  109  A    between atoms: _267  and  _269
REMARK  110  A    between atoms: _269  and  _270
REMARK  111  A    between atoms: _269  and  _272
REMARK  112  A    between atoms: _272  and  _273
REMARK  113  A    between atoms: _279  and  _281
REMARK  114  A    between atoms: _281  and  _282
REMARK  115  A    between atoms: _281  and  _284
REMARK  116  A    between atoms: _284  and  _285
REMARK  117  A    between atoms: _285  and  _286
REMARK  118  A    between atoms: _291  and  _293
REMARK  119  A    between atoms: _293  and  _294
REMARK  120  A    between atoms: _293  and  _296
REMARK  121  A    between atoms: _299  and  _301
REMARK  122  A    between atoms: _301  and  _302
REMARK  123  A    between atoms: _301  and  _304
REMARK  124  A    between atoms: _304  and  _305
REMARK  125  A    between atoms: _308  and  _310
REMARK  126  A    between atoms: _310  and  _311
REMARK  127  A    between atoms: _310  and  _313
REMARK  128  A    between atoms: _313  and  _314
REMARK  129  A    between atoms: _317  and  _319
REMARK  130  A    between atoms: _319  and  _320
REMARK  131  A    between atoms: _319  and  _322
REMARK  132  A    between atoms: _322  and  _323
REMARK  133  A    between atoms: _326  and  _328
REMARK  134  A    between atoms: _328  and  _329
REMARK  135  A    between atoms: _328  and  _331
REMARK  136  A    between atoms: _331  and  _332
REMARK  137  A    between atoms: _335  and  _337
REMARK  138  A    between atoms: _337  and  _338
REMARK  139  A    between atoms: _337  and  _340
REMARK  140  A    between atoms: _340  and  _341
REMARK  141  A    between atoms: _341  and  _342
REMARK  142  A    between atoms: _342  and  _343
REMARK  143  A    between atoms: _352  and  _354
REMARK  144  A    between atoms: _354  and  _355
REMARK  145  A    between atoms: _354  and  _357
REMARK  146  A    between atoms: _357  and  _358
REMARK  147  A    between atoms: _361  and  _363
REMARK  148  A    between atoms: _363  and  _364
REMARK  149  A    between atoms: _363  and  _366
REMARK  150  A    between atoms: _366  and  _367
REMARK  151  A    between atoms: _371  and  _372
REMARK  152  A    between atoms: _377  and  _379
REMARK  153  A    between atoms: _379  and  _380
REMARK  154  A    between atoms: _379  and  _382
REMARK  155  A    between atoms: _382  and  _383
REMARK  156  A    between atoms: _388  and  _389
REMARK  157  A    between atoms: _391  and  _393
REMARK  158  A    between atoms: _393  and  _394
REMARK  159  A    between atoms: _393  and  _396
REMARK  160  A    between atoms: _396  and  _397
REMARK  161  A    between atoms: _407  and  _409
REMARK  162  A    between atoms: _409  and  _410
REMARK  163  A    between atoms: _409  and  _412
REMARK  164  A    between atoms: _412  and  _413
REMARK  165  A    between atoms: _419  and  _421
REMARK  166  A    between atoms: _421  and  _422
REMARK  167  A    between atoms: _421  and  _424
REMARK  168  A    between atoms: _424  and  _425
REMARK  169  A    between atoms: _428  and  _430
REMARK  170  A    between atoms: _430  and  _431
REMARK  171  A    between atoms: _430  and  _433
REMARK  172  A    between atoms: _433  and  _434
REMARK  173  A    between atoms: _444  and  _446
REMARK  174  A    between atoms: _446  and  _447
REMARK  175  A    between atoms: _446  and  _449
REMARK  176  A    between atoms: _449  and  _450
REMARK  177  A    between atoms: _450  and  _451
REMARK  178  A    between atoms: _453  and  _455
REMARK  179  A    between atoms: _455  and  _456
REMARK  180  A    between atoms: _455  and  _458
REMARK  181  A    between atoms: _458  and  _459
REMARK  182  A    between atoms: _464  and  _466
REMARK  183  A    between atoms: _466  and  _467
REMARK  184  A    between atoms: _470  and  _471
REMARK  185  A    between atoms: _476  and  _478
REMARK  186  A    between atoms: _478  and  _479
REMARK  187  A    between atoms: _478  and  _481
REMARK  188  A    between atoms: _481  and  _482
REMARK  189  A    between atoms: _492  and  _494
REMARK  190  A    between atoms: _494  and  _495
REMARK  191  A    between atoms: _499  and  _500
REMARK  192  A    between atoms: _505  and  _507
REMARK  193  A    between atoms: _507  and  _508
REMARK  194  A    between atoms: _507  and  _510
REMARK  195  A    between atoms: _510  and  _511
REMARK  196  A    between atoms: _511  and  _512
REMARK  197  A    between atoms: _517  and  _519
REMARK  198  A    between atoms: _519  and  _520
REMARK  199  A    between atoms: _522  and  _524
REMARK  200  A    between atoms: _524  and  _525
REMARK  201  A    between atoms: _527  and  _529
REMARK  202  A    between atoms: _529  and  _530
REMARK  203  A    between atoms: _529  and  _532
REMARK  204  A    between atoms: _532  and  _533
REMARK  205  A    between atoms: _543  and  _545
REMARK  206  A    between atoms: _545  and  _546
REMARK  207  A    between atoms: _545  and  _548
REMARK  208  A    between atoms: _548  and  _549
REMARK  209  A    between atoms: _552  and  _554
REMARK  210  A    between atoms: _554  and  _555
REMARK  211  A    between atoms: _554  and  _557
REMARK  212  A    between atoms: _557  and  _558
REMARK  213  A    between atoms: _561  and  _563
REMARK  214  A    between atoms: _563  and  _564
REMARK  215  A    between atoms: _563  and  _566
REMARK  216  A    between atoms: _566  and  _567
REMARK  217  A    between atoms: _567  and  _568
REMARK  218  A    between atoms: _568  and  _569
REMARK  219  A    between atoms: _578  and  _580
REMARK  220  A    between atoms: _580  and  _581
REMARK  221  A    between atoms: _580  and  _583
REMARK  222  A    between atoms: _583  and  _584
REMARK  223  A    between atoms: _594  and  _596
REMARK  224  A    between atoms: _596  and  _597
REMARK  225  A    between atoms: _599  and  _601
REMARK  226  A    between atoms: _601  and  _602
REMARK  227  A    between atoms: _601  and  _604
REMARK  228  A    between atoms: _604  and  _605
REMARK  229  A    between atoms: _610  and  _612
REMARK  230  A    between atoms: _612  and  _613
REMARK  231  A    between atoms: _616  and  _618
REMARK  232  A    between atoms: _618  and  _619
REMARK  233  A    between atoms: _618  and  _621
REMARK  234  A    between atoms: _621  and  _622
REMARK  235  A    between atoms: _625  and  _627
REMARK  236  A    between atoms: _627  and  _628
REMARK  237  A    between atoms: _627  and  _630
REMARK  238  A    between atoms: _630  and  _631
REMARK  239  A    between atoms: _637  and  _639
REMARK  240  A    between atoms: _639  and  _640
REMARK  241  A    between atoms: _639  and  _642
REMARK  242  A    between atoms: _642  and  _643
REMARK  243  A    between atoms: _643  and  _644
REMARK  244  A    between atoms: _647  and  _649
REMARK  245  A    between atoms: _649  and  _650
REMARK  246  A    between atoms: _649  and  _652
REMARK  247  A    between atoms: _652  and  _653
REMARK  248  A    between atoms: _653  and  _654
REMARK  249  A    between atoms: _654  and  _655
REMARK                            x       y       z     vdW  Elec       q    Type
REMARK                         _______ _______ _______ _____ _____    ______ ____
ROOT
ATOM      1  O   HOH     1      -7.189 -16.092  21.184  0.00  0.00    +0.000 OA
ENDROOT
TORSDOF 0
REMARK  Name = ../refined-set-2016/3jzj/3jzj_pocket.pdb
REMARK  249 active torsions:
REMARK  status: ('A' for Active; 'I' for Inactive)
REMARK    1  A    between atoms: _1  and  _3
REMARK    2  A    between atoms: _3  and  _4
REMARK    3  A    between atoms: _3  and  _6
REMARK    4  A    between atoms: _6  and  _7
REMARK    5  A    between atoms: _10  and  _12
REMARK    6  A    between atoms: _12  and  _13
REMARK    7  A    between atoms: _12  and  _15
REMARK    8  A    between atoms: _15  and  _16
REMARK    9  A    between atoms: _19  and  _21
REMARK   10  A    between atoms: _21  and  _22
REMARK   11  A    between atoms: _21  and  _24
REMARK   12  A    between atoms: _24  and  _25
REMARK   13  A    between atoms: _27  and  _29
REMARK   14  A    between atoms: _29  and  _30
REMARK   15  A    between atoms: _29  and  _32
REMARK   16  A    between atoms: _32  and  _33
REMARK   17  A    between atoms: _38  and  _40
REMARK   18  A    between atoms: _40  and  _41
REMARK   19  A    between atoms: _40  and  _43
REMARK   20  A    between atoms: _43  and  _44
REMARK   21  A    between atoms: _44  and  _45
REMARK   22  A    between atoms: _48  and  _50
REMARK   23  A    between atoms: _50  and  _51
REMARK   24  A    between atoms: _54  and  _56
REMARK   25  A    between atoms: _56  and  _57
REMARK   26  A    between atoms: _56  and  _59
REMARK   27  A    between atoms: _59  and  _60
REMARK   28  A    between atoms: _60  and  _61
REMARK   29  A    between atoms: _64  and  _66
REMARK   30  A    between atoms: _66  and  _67
REMARK   31  A    between atoms: _66  and  _69
REMARK   32  A    between atoms: _69  and  _70
REMARK   33  A    between atoms: _70  and  _71
REMARK   34  A    between atoms: _71  and  _72
REMARK   35  A    between atoms: _72  and  _73
REMARK   36  A    between atoms: _77  and  _79
REMARK   37  A    between atoms: _79  and  _80
REMARK   38  A    between atoms: _79  and  _82
REMARK   39  A    between atoms: _82  and  _83
REMARK   40  A    between atoms: _88  and  _89
REMARK   41  A    between atoms: _91  and  _93
REMARK   42  A    between atoms: _93  and  _94
REMARK   43  A    between atoms: _93  and  _96
REMARK   44  A    between atoms: _96  and  _97
REMARK   45  A    between atoms: _102  and  _104
REMARK   46  A    between atoms: _104  and  _105
REMARK   47  A    between atoms: _104  and  _107
REMARK   48  A    between atoms: _111  and  _112
REMARK   49  A    between atoms: _117  and  _119
REMARK   50  A    between atoms: _119  and  _120
REMARK   51  A    between atoms: _119  and  _122
REMARK   52  A    between atoms: _122  and  _123
REMARK   53  A    between atoms: _129  and  _131
REMARK   54  A    between atoms: _131  and  _132
REMARK   55  A    between atoms: _134  and  _136
REMARK   56  A    between atoms: _136  and  _137
REMARK   57  A    between atoms: _136  and  _139
REMARK   58  A    between atoms: _139  and  _140
REMARK   59  A    between atoms: _140  and  _141
REMARK   60  A    between atoms: _144  and  _146
REMARK   61  A    between atoms: _146  and  _147
REMARK   62  A    between atoms: _150  and  _152
REMARK   63  A    between atoms: _152  and  _153
REMARK   64  A    between atoms: _152  and  _155
REMARK   65  A    between atoms: _155  and  _156
REMARK   66  A    between atoms: _161  and  _163
REMARK   67  A    between atoms: _163  and  _164
REMARK   68  A    between atoms: _167  and  _169
REMARK   69  A    between atoms: _169  and  _170
REMARK   70  A    between atoms: _169  and  _172
REMARK   71  A    between atoms: _172  and  _173
REMARK   72  A    between atoms: _173  and  _174
REMARK   73  A    between atoms: _174  and  _175
REMARK   74  A    between atoms: _175  and  _176
REMARK   75  A    between atoms: _180  and  _182
REMARK   76  A    between atoms: _182  and  _183
REMARK   77  A    between atoms: _182  and  _185
REMARK   78  A    between atoms: _185  and  _186
REMARK   79  A    between atoms: _186  and  _187
REMARK   80  A    between atoms: _187  and  _188
REMARK   81  A    between atoms: _188  and  _189
REMARK   82  A    between atoms: _193  and  _195
REMARK   83  A    between atoms: _195  and  _196
REMARK   84  A    between atoms: _195  and  _198
REMARK   85  A    between atoms: _198  and  _199
REMARK   86  A    between atoms: _199  and  _200
REMARK   87  A    between atoms: _200  and  _201
REMARK   88  A    between atoms: _210  and  _212
REMARK   89  A    between atoms: _212  and  _213
REMARK   90  A    between atoms: _212  and  _215
REMARK   91  A    between atoms: _215  and  _216
REMARK   92  A    between atoms: _216  and  _217
REMARK   93  A    between atoms: _220  and  _222
REMARK   94  A    between atoms: _222  and  _223
REMARK   95  A    between atoms: _222  and  _225
REMARK   96  A    between atoms: _228  and  _230
REMARK   97  A    between atoms: _230  and  _231
REMARK   98  A    between atoms: _234  and  _236
REMARK   99  A    between atoms: _236  and  _237
REMARK  100  A    between atoms: _236  and  _239
REMARK  101  A    between atoms: _239  and  _240
REMARK  102  A    between atoms: _250  and  _252
REMARK  103  A    between atoms: _252  and  _253
REMARK  104  A    between atoms: _252  and  _255
REMARK  105  A    between atoms: _258  and  _260
REMARK  106  A    between atoms: _260  and  _261
REMARK  107  A    between atoms: _260  and  _263
REMARK  108  A    between atoms: _263  and  _264
REMARK  109  A    between atoms: _267  and  _269
REMARK  110  A    between atoms: _269  and  _270
REMARK  111  A    between atoms: _269  and  _272
REMARK  112  A    between atoms: _272  and  _273
REMARK  113  A    between atoms: _279  and  _281
REMARK  114  A    between atoms: _281  and  _282
REMARK  115  A    between atoms: _281  and  _284
REMARK  116  A    between atoms: _284  and  _285
REMARK  117  A    between atoms: _285  and  _286
REMARK  118  A    between atoms: _291  and  _293
REMARK  119  A    between atoms: _293  and  _294
REMARK  120  A    between atoms: _293  and  _296
REMARK  121  A    between atoms: _299  and  _301
REMARK  122  A    between atoms: _301  and  _302
REMARK  123  A    between atoms: _301  and  _304
REMARK  124  A    between atoms: _304  and  _305
REMARK  125  A    between atoms: _308  and  _310
REMARK  126  A    between atoms: _310  and  _311
REMARK  127  A    between atoms: _310  and  _313
REMARK  128  A    between atoms: _313  and  _314
REMARK  129  A    between atoms: _317  and  _319
REMARK  130  A    between atoms: _319  and  _320
REMARK  131  A    between atoms: _319  and  _322
REMARK  132  A    between atoms: _322  and  _323
REMARK  133  A    between atoms: _326  and  _328
REMARK  134  A    between atoms: _328  and  _329
REMARK  135  A    between atoms: _328  and  _331
REMARK  136  A    between atoms: _331  and  _332
REMARK  137  A    between atoms: _335  and  _337
REMARK  138  A    between atoms: _337  and  _338
REMARK  139  A    between atoms: _337  and  _340
REMARK  140  A    between atoms: _340  and  _341
REMARK  141  A    between atoms: _341  and  _342
REMARK  142  A    between atoms: _342  and  _343
REMARK  143  A    between atoms: _352  and  _354
REMARK  144  A    between atoms: _354  and  _355
REMARK  145  A    between atoms: _354  and  _357
REMARK  146  A    between atoms: _357  and  _358
REMARK  147  A    between atoms: _361  and  _363
REMARK  148  A    between atoms: _363  and  _364
REMARK  149  A    between atoms: _363  and  _366
REMARK  150  A    between atoms: _366  and  _367
REMARK  151  A    between atoms: _371  and  _372
REMARK  152  A    between atoms: _377  and  _379
REMARK  153  A    between atoms: _379  and  _380
REMARK  154  A    between atoms: _379  and  _382
REMARK  155  A    between atoms: _382  and  _383
REMARK  156  A    between atoms: _388  and  _389
REMARK  157  A    between atoms: _391  and  _393
REMARK  158  A    between atoms: _393  and  _394
REMARK  159  A    between atoms: _393  and  _396
REMARK  160  A    between atoms: _396  and  _397
REMARK  161  A    between atoms: _407  and  _409
REMARK  162  A    between atoms: _409  and  _410
REMARK  163  A    between atoms: _409  and  _412
REMARK  164  A    between atoms: _412  and  _413
REMARK  165  A    between atoms: _419  and  _421
REMARK  166  A    between atoms: _421  and  _422
REMARK  167  A    between atoms: _421  and  _424
REMARK  168  A    between atoms: _424  and  _425
REMARK  169  A    between atoms: _428  and  _430
REMARK  170  A    between atoms: _430  and  _431
REMARK  171  A    between atoms: _430  and  _433
REMARK  172  A    between atoms: _433  and  _434
REMARK  173  A    between atoms: _444  and  _446
REMARK  174  A    between atoms: _446  and  _447
REMARK  175  A    between atoms: _446  and  _449
REMARK  176  A    between atoms: _449  and  _450
REMARK  177  A    between atoms: _450  and  _451
REMARK  178  A    between atoms: _453  and  _455
REMARK  179  A    between atoms: _455  and  _456
REMARK  180  A    between atoms: _455  and  _458
REMARK  181  A    between atoms: _458  and  _459
REMARK  182  A    between atoms: _464  and  _466
REMARK  183  A    between atoms: _466  and  _467
REMARK  184  A    between atoms: _470  and  _471
REMARK  185  A    between atoms: _476  and  _478
REMARK  186  A    between atoms: _478  and  _479
REMARK  187  A    between atoms: _478  and  _481
REMARK  188  A    between atoms: _481  and  _482
REMARK  189  A    between atoms: _492  and  _494
REMARK  190  A    between atoms: _494  and  _495
REMARK  191  A    between atoms: _499  and  _500
REMARK  192  A    between atoms: _505  and  _507
REMARK  193  A    between atoms: _507  and  _508
REMARK  194  A    between atoms: _507  and  _510
REMARK  195  A    between atoms: _510  and  _511
REMARK  196  A    between atoms: _511  and  _512
REMARK  197  A    between atoms: _517  and  _519
REMARK  198  A    between atoms: _519  and  _520
REMARK  199  A    between atoms: _522  and  _524
REMARK  200  A    between atoms: _524  and  _525
REMARK  201  A    between atoms: _527  and  _529
REMARK  202  A    between atoms: _529  and  _530
REMARK  203  A    between atoms: _529  and  _532
REMARK  204  A    between atoms: _532  and  _533
REMARK  205  A    between atoms: _543  and  _545
REMARK  206  A    between atoms: _545  and  _546
REMARK  207  A    between atoms: _545  and  _548
REMARK  208  A    between atoms: _548  and  _549
REMARK  209  A    between atoms: _552  and  _554
REMARK  210  A    between atoms: _554  and  _555
REMARK  211  A    between atoms: _554  and  _557
REMARK  212  A    between atoms: _557  and  _558
REMARK  213  A    between atoms: _561  and  _563
REMARK  214  A    between atoms: _563  and  _564
REMARK  215  A    between atoms: _563  and  _566
REMARK  216  A    between atoms: _566  and  _567
REMARK  217  A    between atoms: _567  and  _568
REMARK  218  A    between atoms: _568  and  _569
REMARK  219  A    between atoms: _578  and  _580
REMARK  220  A    between atoms: _580  and  _581
REMARK  221  A    between atoms: _580  and  _583
REMARK  222  A    between atoms: _583  and  _584
REMARK  223  A    between atoms: _594  and  _596
REMARK  224  A    between atoms: _596  and  _597
REMARK  225  A    between atoms: _599  and  _601
REMARK  226  A    between atoms: _601  and  _602
REMARK  227  A    between atoms: _601  and  _604
REMARK  228  A    between atoms: _604  and  _605
REMARK  229  A    between atoms: _610  and  _612
REMARK  230  A    between atoms: _612  and  _613
REMARK  231  A    between atoms: _616  and  _618
REMARK  232  A    between atoms: _618  and  _619
REMARK  233  A    between atoms: _618  and  _621
REMARK  234  A    between atoms: _621  and  _622
REMARK  235  A    between atoms: _625  and  _627
REMARK  236  A    between atoms: _627  and  _628
REMARK  237  A    between atoms: _627  and  _630
REMARK  238  A    between atoms: _630  and  _631
REMARK  239  A    between atoms: _637  and  _639
REMARK  240  A    between atoms: _639  and  _640
REMARK  241  A    between atoms: _639  and  _642
REMARK  242  A    between atoms: _642  and  _643
REMARK  243  A    between atoms: _643  and  _644
REMARK  244  A    between atoms: _647  and  _649
REMARK  245  A    between atoms: _649  and  _650
REMARK  246  A    between atoms: _649  and  _652
REMARK  247  A    between atoms: _652  and  _653
REMARK  248  A    between atoms: _653  and  _654
REMARK  249  A    between atoms: _654  and  _655
REMARK                            x       y       z     vdW  Elec       q    Type
REMARK                         _______ _______ _______ _____ _____    ______ ____
ROOT
ATOM      1  O   HOH     1      -8.932  -4.560   9.446  0.00  0.00    +0.000 OA
ENDROOT
TORSDOF 0
REMARK  Name = ../refined-set-2016/3jzj/3jzj_pocket.pdb
REMARK  249 active torsions:
REMARK  status: ('A' for Active; 'I' for Inactive)
REMARK    1  A    between atoms: _1  and  _3
REMARK    2  A    between atoms: _3  and  _4
REMARK    3  A    between atoms: _3  and  _6
REMARK    4  A    between atoms: _6  and  _7
REMARK    5  A    between atoms: _10  and  _12
REMARK    6  A    between atoms: _12  and  _13
REMARK    7  A    between atoms: _12  and  _15
REMARK    8  A    between atoms: _15  and  _16
REMARK    9  A    between atoms: _19  and  _21
REMARK   10  A    between atoms: _21  and  _22
REMARK   11  A    between atoms: _21  and  _24
REMARK   12  A    between atoms: _24  and  _25
REMARK   13  A    between atoms: _27  and  _29
REMARK   14  A    between atoms: _29  and  _30
REMARK   15  A    between atoms: _29  and  _32
REMARK   16  A    between atoms: _32  and  _33
REMARK   17  A    between atoms: _38  and  _40
REMARK   18  A    between atoms: _40  and  _41
REMARK   19  A    between atoms: _40  and  _43
REMARK   20  A    between atoms: _43  and  _44
REMARK   21  A    between atoms: _44  and  _45
REMARK   22  A    between atoms: _48  and  _50
REMARK   23  A    between atoms: _50  and  _51
REMARK   24  A    between atoms: _54  and  _56
REMARK   25  A    between atoms: _56  and  _57
REMARK   26  A    between atoms: _56  and  _59
REMARK   27  A    between atoms: _59  and  _60
REMARK   28  A    between atoms: _60  and  _61
REMARK   29  A    between atoms: _64  and  _66
REMARK   30  A    between atoms: _66  and  _67
REMARK   31  A    between atoms: _66  and  _69
REMARK   32  A    between atoms: _69  and  _70
REMARK   33  A    between atoms: _70  and  _71
REMARK   34  A    between atoms: _71  and  _72
REMARK   35  A    between atoms: _72  and  _73
REMARK   36  A    between atoms: _77  and  _79
REMARK   37  A    between atoms: _79  and  _80
REMARK   38  A    between atoms: _79  and  _82
REMARK   39  A    between atoms: _82  and  _83
REMARK   40  A    between atoms: _88  and  _89
REMARK   41  A    between atoms: _91  and  _93
REMARK   42  A    between atoms: _93  and  _94
REMARK   43  A    between atoms: _93  and  _96
REMARK   44  A    between atoms: _96  and  _97
REMARK   45  A    between atoms: _102  and  _104
REMARK   46  A    between atoms: _104  and  _105
REMARK   47  A    between atoms: _104  and  _107
REMARK   48  A    between atoms: _111  and  _112
REMARK   49  A    between atoms: _117  and  _119
REMARK   50  A    between atoms: _119  and  _120
REMARK   51  A    between atoms: _119  and  _122
REMARK   52  A    between atoms: _122  and  _123
REMARK   53  A    between atoms: _129  and  _131
REMARK   54  A    between atoms: _131  and  _132
REMARK   55  A    between atoms: _134  and  _136
REMARK   56  A    between atoms: _136  and  _137
REMARK   57  A    between atoms: _136  and  _139
REMARK   58  A    between atoms: _139  and  _140
REMARK   59  A    between atoms: _140  and  _141
REMARK   60  A    between atoms: _144  and  _146
REMARK   61  A    between atoms: _146  and  _147
REMARK   62  A    between atoms: _150  and  _152
REMARK   63  A    between atoms: _152  and  _153
REMARK   64  A    between atoms: _152  and  _155
REMARK   65  A    between atoms: _155  and  _156
REMARK   66  A    between atoms: _161  and  _163
REMARK   67  A    between atoms: _163  and  _164
REMARK   68  A    between atoms: _167  and  _169
REMARK   69  A    between atoms: _169  and  _170
REMARK   70  A    between atoms: _169  and  _172
REMARK   71  A    between atoms: _172  and  _173
REMARK   72  A    between atoms: _173  and  _174
REMARK   73  A    between atoms: _174  and  _175
REMARK   74  A    between atoms: _175  and  _176
REMARK   75  A    between atoms: _180  and  _182
REMARK   76  A    between atoms: _182  and  _183
REMARK   77  A    between atoms: _182  and  _185
REMARK   78  A    between atoms: _185  and  _186
REMARK   79  A    between atoms: _186  and  _187
REMARK   80  A    between atoms: _187  and  _188
REMARK   81  A    between atoms: _188  and  _189
REMARK   82  A    between atoms: _193  and  _195
REMARK   83  A    between atoms: _195  and  _196
REMARK   84  A    between atoms: _195  and  _198
REMARK   85  A    between atoms: _198  and  _199
REMARK   86  A    between atoms: _199  and  _200
REMARK   87  A    between atoms: _200  and  _201
REMARK   88  A    between atoms: _210  and  _212
REMARK   89  A    between atoms: _212  and  _213
REMARK   90  A    between atoms: _212  and  _215
REMARK   91  A    between atoms: _215  and  _216
REMARK   92  A    between atoms: _216  and  _217
REMARK   93  A    between atoms: _220  and  _222
REMARK   94  A    between atoms: _222  and  _223
REMARK   95  A    between atoms: _222  and  _225
REMARK   96  A    between atoms: _228  and  _230
REMARK   97  A    between atoms: _230  and  _231
REMARK   98  A    between atoms: _234  and  _236
REMARK   99  A    between atoms: _236  and  _237
REMARK  100  A    between atoms: _236  and  _239
REMARK  101  A    between atoms: _239  and  _240
REMARK  102  A    between atoms: _250  and  _252
REMARK  103  A    between atoms: _252  and  _253
REMARK  104  A    between atoms: _252  and  _255
REMARK  105  A    between atoms: _258  and  _260
REMARK  106  A    between atoms: _260  and  _261
REMARK  107  A    between atoms: _260  and  _263
REMARK  108  A    between atoms: _263  and  _264
REMARK  109  A    between atoms: _267  and  _269
REMARK  110  A    between atoms: _269  and  _270
REMARK  111  A    between atoms: _269  and  _272
REMARK  112  A    between atoms: _272  and  _273
REMARK  113  A    between atoms: _279  and  _281
REMARK  114  A    between atoms: _281  and  _282
REMARK  115  A    between atoms: _281  and  _284
REMARK  116  A    between atoms: _284  and  _285
REMARK  117  A    between atoms: _285  and  _286
REMARK  118  A    between atoms: _291  and  _293
REMARK  119  A    between atoms: _293  and  _294
REMARK  120  A    between atoms: _293  and  _296
REMARK  121  A    between atoms: _299  and  _301
REMARK  122  A    between atoms: _301  and  _302
REMARK  123  A    between atoms: _301  and  _304
REMARK  124  A    between atoms: _304  and  _305
REMARK  125  A    between atoms: _308  and  _310
REMARK  126  A    between atoms: _310  and  _311
REMARK  127  A    between atoms: _310  and  _313
REMARK  128  A    between atoms: _313  and  _314
REMARK  129  A    between atoms: _317  and  _319
REMARK  130  A    between atoms: _319  and  _320
REMARK  131  A    between atoms: _319  and  _322
REMARK  132  A    between atoms: _322  and  _323
REMARK  133  A    between atoms: _326  and  _328
REMARK  134  A    between atoms: _328  and  _329
REMARK  135  A    between atoms: _328  and  _331
REMARK  136  A    between atoms: _331  and  _332
REMARK  137  A    between atoms: _335  and  _337
REMARK  138  A    between atoms: _337  and  _338
REMARK  139  A    between atoms: _337  and  _340
REMARK  140  A    between atoms: _340  and  _341
REMARK  141  A    between atoms: _341  and  _342
REMARK  142  A    between atoms: _342  and  _343
REMARK  143  A    between atoms: _352  and  _354
REMARK  144  A    between atoms: _354  and  _355
REMARK  145  A    between atoms: _354  and  _357
REMARK  146  A    between atoms: _357  and  _358
REMARK  147  A    between atoms: _361  and  _363
REMARK  148  A    between atoms: _363  and  _364
REMARK  149  A    between atoms: _363  and  _366
REMARK  150  A    between atoms: _366  and  _367
REMARK  151  A    between atoms: _371  and  _372
REMARK  152  A    between atoms: _377  and  _379
REMARK  153  A    between atoms: _379  and  _380
REMARK  154  A    between atoms: _379  and  _382
REMARK  155  A    between atoms: _382  and  _383
REMARK  156  A    between atoms: _388  and  _389
REMARK  157  A    between atoms: _391  and  _393
REMARK  158  A    between atoms: _393  and  _394
REMARK  159  A    between atoms: _393  and  _396
REMARK  160  A    between atoms: _396  and  _397
REMARK  161  A    between atoms: _407  and  _409
REMARK  162  A    between atoms: _409  and  _410
REMARK  163  A    between atoms: _409  and  _412
REMARK  164  A    between atoms: _412  and  _413
REMARK  165  A    between atoms: _419  and  _421
REMARK  166  A    between atoms: _421  and  _422
REMARK  167  A    between atoms: _421  and  _424
REMARK  168  A    between atoms: _424  and  _425
REMARK  169  A    between atoms: _428  and  _430
REMARK  170  A    between atoms: _430  and  _431
REMARK  171  A    between atoms: _430  and  _433
REMARK  172  A    between atoms: _433  and  _434
REMARK  173  A    between atoms: _444  and  _446
REMARK  174  A    between atoms: _446  and  _447
REMARK  175  A    between atoms: _446  and  _449
REMARK  176  A    between atoms: _449  and  _450
REMARK  177  A    between atoms: _450  and  _451
REMARK  178  A    between atoms: _453  and  _455
REMARK  179  A    between atoms: _455  and  _456
REMARK  180  A    between atoms: _455  and  _458
REMARK  181  A    between atoms: _458  and  _459
REMARK  182  A    between atoms: _464  and  _466
REMARK  183  A    between atoms: _466  and  _467
REMARK  184  A    between atoms: _470  and  _471
REMARK  185  A    between atoms: _476  and  _478
REMARK  186  A    between atoms: _478  and  _479
REMARK  187  A    between atoms: _478  and  _481
REMARK  188  A    between atoms: _481  and  _482
REMARK  189  A    between atoms: _492  and  _494
REMARK  190  A    between atoms: _494  and  _495
REMARK  191  A    between atoms: _499  and  _500
REMARK  192  A    between atoms: _505  and  _507
REMARK  193  A    between atoms: _507  and  _508
REMARK  194  A    between atoms: _507  and  _510
REMARK  195  A    between atoms: _510  and  _511
REMARK  196  A    between atoms: _511  and  _512
REMARK  197  A    between atoms: _517  and  _519
REMARK  198  A    between atoms: _519  and  _520
REMARK  199  A    between atoms: _522  and  _524
REMARK  200  A    between atoms: _524  and  _525
REMARK  201  A    between atoms: _527  and  _529
REMARK  202  A    between atoms: _529  and  _530
REMARK  203  A    between atoms: _529  and  _532
REMARK  204  A    between atoms: _532  and  _533
REMARK  205  A    between atoms: _543  and  _545
REMARK  206  A    between atoms: _545  and  _546
REMARK  207  A    between atoms: _545  and  _548
REMARK  208  A    between atoms: _548  and  _549
REMARK  209  A    between atoms: _552  and  _554
REMARK  210  A    between atoms: _554  and  _555
REMARK  211  A    between atoms: _554  and  _557
REMARK  212  A    between atoms: _557  and  _558
REMARK  213  A    between atoms: _561  and  _563
REMARK  214  A    between atoms: _563  and  _564
REMARK  215  A    between atoms: _563  and  _566
REMARK  216  A    between atoms: _566  and  _567
REMARK  217  A    between atoms: _567  and  _568
REMARK  218  A    between atoms: _568  and  _569
REMARK  219  A    between atoms: _578  and  _580
REMARK  220  A    between atoms: _580  and  _581
REMARK  221  A    between atoms: _580  and  _583
REMARK  222  A    between atoms: _583  and  _584
REMARK  223  A    between atoms: _594  and  _596
REMARK  224  A    between atoms: _596  and  _597
REMARK  225  A    between atoms: _599  and  _601
REMARK  226  A    between atoms: _601  and  _602
REMARK  227  A    between atoms: _601  and  _604
REMARK  228  A    between atoms: _604  and  _605
REMARK  229  A    between atoms: _610  and  _612
REMARK  230  A    between atoms: _612  and  _613
REMARK  231  A    between atoms: _616  and  _618
REMARK  232  A    between atoms: _618  and  _619
REMARK  233  A    between atoms: _618  and  _621
REMARK  234  A    between atoms: _621  and  _622
REMARK  235  A    between atoms: _625  and  _627
REMARK  236  A    between atoms: _627  and  _628
REMARK  237  A    between atoms: _627  and  _630
REMARK  238  A    between atoms: _630  and  _631
REMARK  239  A    between atoms: _637  and  _639
REMARK  240  A    between atoms: _639  and  _640
REMARK  241  A    between atoms: _639  and  _642
REMARK  242  A    between atoms: _642  and  _643
REMARK  243  A    between atoms: _643  and  _644
REMARK  244  A    between atoms: _647  and  _649
REMARK  245  A    between atoms: _649  and  _650
REMARK  246  A    between atoms: _649  and  _652
REMARK  247  A    between atoms: _652  and  _653
REMARK  248  A    between atoms: _653  and  _654
REMARK  249  A    between atoms: _654  and  _655
REMARK                            x       y       z     vdW  Elec       q    Type
REMARK                         _______ _______ _______ _____ _____    ______ ____
ROOT
ATOM      1  O   HOH     1     -13.474  -9.506  20.419  0.00  0.00    +0.000 OA
ENDROOT
TORSDOF 0
REMARK  Name = ../refined-set-2016/3jzj/3jzj_pocket.pdb
REMARK  249 active torsions:
REMARK  status: ('A' for Active; 'I' for Inactive)
REMARK    1  A    between atoms: _1  and  _3
REMARK    2  A    between atoms: _3  and  _4
REMARK    3  A    between atoms: _3  and  _6
REMARK    4  A    between atoms: _6  and  _7
REMARK    5  A    between atoms: _10  and  _12
REMARK    6  A    between atoms: _12  and  _13
REMARK    7  A    between atoms: _12  and  _15
REMARK    8  A    between atoms: _15  and  _16
REMARK    9  A    between atoms: _19  and  _21
REMARK   10  A    between atoms: _21  and  _22
REMARK   11  A    between atoms: _21  and  _24
REMARK   12  A    between atoms: _24  and  _25
REMARK   13  A    between atoms: _27  and  _29
REMARK   14  A    between atoms: _29  and  _30
REMARK   15  A    between atoms: _29  and  _32
REMARK   16  A    between atoms: _32  and  _33
REMARK   17  A    between atoms: _38  and  _40
REMARK   18  A    between atoms: _40  and  _41
REMARK   19  A    between atoms: _40  and  _43
REMARK   20  A    between atoms: _43  and  _44
REMARK   21  A    between atoms: _44  and  _45
REMARK   22  A    between atoms: _48  and  _50
REMARK   23  A    between atoms: _50  and  _51
REMARK   24  A    between atoms: _54  and  _56
REMARK   25  A    between atoms: _56  and  _57
REMARK   26  A    between atoms: _56  and  _59
REMARK   27  A    between atoms: _59  and  _60
REMARK   28  A    between atoms: _60  and  _61
REMARK   29  A    between atoms: _64  and  _66
REMARK   30  A    between atoms: _66  and  _67
REMARK   31  A    between atoms: _66  and  _69
REMARK   32  A    between atoms: _69  and  _70
REMARK   33  A    between atoms: _70  and  _71
REMARK   34  A    between atoms: _71  and  _72
REMARK   35  A    between atoms: _72  and  _73
REMARK   36  A    between atoms: _77  and  _79
REMARK   37  A    between atoms: _79  and  _80
REMARK   38  A    between atoms: _79  and  _82
REMARK   39  A    between atoms: _82  and  _83
REMARK   40  A    between atoms: _88  and  _89
REMARK   41  A    between atoms: _91  and  _93
REMARK   42  A    between atoms: _93  and  _94
REMARK   43  A    between atoms: _93  and  _96
REMARK   44  A    between atoms: _96  and  _97
REMARK   45  A    between atoms: _102  and  _104
REMARK   46  A    between atoms: _104  and  _105
REMARK   47  A    between atoms: _104  and  _107
REMARK   48  A    between atoms: _111  and  _112
REMARK   49  A    between atoms: _117  and  _119
REMARK   50  A    between atoms: _119  and  _120
REMARK   51  A    between atoms: _119  and  _122
REMARK   52  A    between atoms: _122  and  _123
REMARK   53  A    between atoms: _129  and  _131
REMARK   54  A    between atoms: _131  and  _132
REMARK   55  A    between atoms: _134  and  _136
REMARK   56  A    between atoms: _136  and  _137
REMARK   57  A    between atoms: _136  and  _139
REMARK   58  A    between atoms: _139  and  _140
REMARK   59  A    between atoms: _140  and  _141
REMARK   60  A    between atoms: _144  and  _146
REMARK   61  A    between atoms: _146  and  _147
REMARK   62  A    between atoms: _150  and  _152
REMARK   63  A    between atoms: _152  and  _153
REMARK   64  A    between atoms: _152  and  _155
REMARK   65  A    between atoms: _155  and  _156
REMARK   66  A    between atoms: _161  and  _163
REMARK   67  A    between atoms: _163  and  _164
REMARK   68  A    between atoms: _167  and  _169
REMARK   69  A    between atoms: _169  and  _170
REMARK   70  A    between atoms: _169  and  _172
REMARK   71  A    between atoms: _172  and  _173
REMARK   72  A    between atoms: _173  and  _174
REMARK   73  A    between atoms: _174  and  _175
REMARK   74  A    between atoms: _175  and  _176
REMARK   75  A    between atoms: _180  and  _182
REMARK   76  A    between atoms: _182  and  _183
REMARK   77  A    between atoms: _182  and  _185
REMARK   78  A    between atoms: _185  and  _186
REMARK   79  A    between atoms: _186  and  _187
REMARK   80  A    between atoms: _187  and  _188
REMARK   81  A    between atoms: _188  and  _189
REMARK   82  A    between atoms: _193  and  _195
REMARK   83  A    between atoms: _195  and  _196
REMARK   84  A    between atoms: _195  and  _198
REMARK   85  A    between atoms: _198  and  _199
REMARK   86  A    between atoms: _199  and  _200
REMARK   87  A    between atoms: _200  and  _201
REMARK   88  A    between atoms: _210  and  _212
REMARK   89  A    between atoms: _212  and  _213
REMARK   90  A    between atoms: _212  and  _215
REMARK   91  A    between atoms: _215  and  _216
REMARK   92  A    between atoms: _216  and  _217
REMARK   93  A    between atoms: _220  and  _222
REMARK   94  A    between atoms: _222  and  _223
REMARK   95  A    between atoms: _222  and  _225
REMARK   96  A    between atoms: _228  and  _230
REMARK   97  A    between atoms: _230  and  _231
REMARK   98  A    between atoms: _234  and  _236
REMARK   99  A    between atoms: _236  and  _237
REMARK  100  A    between atoms: _236  and  _239
REMARK  101  A    between atoms: _239  and  _240
REMARK  102  A    between atoms: _250  and  _252
REMARK  103  A    between atoms: _252  and  _253
REMARK  104  A    between atoms: _252  and  _255
REMARK  105  A    between atoms: _258  and  _260
REMARK  106  A    between atoms: _260  and  _261
REMARK  107  A    between atoms: _260  and  _263
REMARK  108  A    between atoms: _263  and  _264
REMARK  109  A    between atoms: _267  and  _269
REMARK  110  A    between atoms: _269  and  _270
REMARK  111  A    between atoms: _269  and  _272
REMARK  112  A    between atoms: _272  and  _273
REMARK  113  A    between atoms: _279  and  _281
REMARK  114  A    between atoms: _281  and  _282
REMARK  115  A    between atoms: _281  and  _284
REMARK  116  A    between atoms: _284  and  _285
REMARK  117  A    between atoms: _285  and  _286
REMARK  118  A    between atoms: _291  and  _293
REMARK  119  A    between atoms: _293  and  _294
REMARK  120  A    between atoms: _293  and  _296
REMARK  121  A    between atoms: _299  and  _301
REMARK  122  A    between atoms: _301  and  _302
REMARK  123  A    between atoms: _301  and  _304
REMARK  124  A    between atoms: _304  and  _305
REMARK  125  A    between atoms: _308  and  _310
REMARK  126  A    between atoms: _310  and  _311
REMARK  127  A    between atoms: _310  and  _313
REMARK  128  A    between atoms: _313  and  _314
REMARK  129  A    between atoms: _317  and  _319
REMARK  130  A    between atoms: _319  and  _320
REMARK  131  A    between atoms: _319  and  _322
REMARK  132  A    between atoms: _322  and  _323
REMARK  133  A    between atoms: _326  and  _328
REMARK  134  A    between atoms: _328  and  _329
REMARK  135  A    between atoms: _328  and  _331
REMARK  136  A    between atoms: _331  and  _332
REMARK  137  A    between atoms: _335  and  _337
REMARK  138  A    between atoms: _337  and  _338
REMARK  139  A    between atoms: _337  and  _340
REMARK  140  A    between atoms: _340  and  _341
REMARK  141  A    between atoms: _341  and  _342
REMARK  142  A    between atoms: _342  and  _343
REMARK  143  A    between atoms: _352  and  _354
REMARK  144  A    between atoms: _354  and  _355
REMARK  145  A    between atoms: _354  and  _357
REMARK  146  A    between atoms: _357  and  _358
REMARK  147  A    between atoms: _361  and  _363
REMARK  148  A    between atoms: _363  and  _364
REMARK  149  A    between atoms: _363  and  _366
REMARK  150  A    between atoms: _366  and  _367
REMARK  151  A    between atoms: _371  and  _372
REMARK  152  A    between atoms: _377  and  _379
REMARK  153  A    between atoms: _379  and  _380
REMARK  154  A    between atoms: _379  and  _382
REMARK  155  A    between atoms: _382  and  _383
REMARK  156  A    between atoms: _388  and  _389
REMARK  157  A    between atoms: _391  and  _393
REMARK  158  A    between atoms: _393  and  _394
REMARK  159  A    between atoms: _393  and  _396
REMARK  160  A    between atoms: _396  and  _397
REMARK  161  A    between atoms: _407  and  _409
REMARK  162  A    between atoms: _409  and  _410
REMARK  163  A    between atoms: _409  and  _412
REMARK  164  A    between atoms: _412  and  _413
REMARK  165  A    between atoms: _419  and  _421
REMARK  166  A    between atoms: _421  and  _422
REMARK  167  A    between atoms: _421  and  _424
REMARK  168  A    between atoms: _424  and  _425
REMARK  169  A    between atoms: _428  and  _430
REMARK  170  A    between atoms: _430  and  _431
REMARK  171  A    between atoms: _430  and  _433
REMARK  172  A    between atoms: _433  and  _434
REMARK  173  A    between atoms: _444  and  _446
REMARK  174  A    between atoms: _446  and  _447
REMARK  175  A    between atoms: _446  and  _449
REMARK  176  A    between atoms: _449  and  _450
REMARK  177  A    between atoms: _450  and  _451
REMARK  178  A    between atoms: _453  and  _455
REMARK  179  A    between atoms: _455  and  _456
REMARK  180  A    between atoms: _455  and  _458
REMARK  181  A    between atoms: _458  and  _459
REMARK  182  A    between atoms: _464  and  _466
REMARK  183  A    between atoms: _466  and  _467
REMARK  184  A    between atoms: _470  and  _471
REMARK  185  A    between atoms: _476  and  _478
REMARK  186  A    between atoms: _478  and  _479
REMARK  187  A    between atoms: _478  and  _481
REMARK  188  A    between atoms: _481  and  _482
REMARK  189  A    between atoms: _492  and  _494
REMARK  190  A    between atoms: _494  and  _495
REMARK  191  A    between atoms: _499  and  _500
REMARK  192  A    between atoms: _505  and  _507
REMARK  193  A    between atoms: _507  and  _508
REMARK  194  A    between atoms: _507  and  _510
REMARK  195  A    between atoms: _510  and  _511
REMARK  196  A    between atoms: _511  and  _512
REMARK  197  A    between atoms: _517  and  _519
REMARK  198  A    between atoms: _519  and  _520
REMARK  199  A    between atoms: _522  and  _524
REMARK  200  A    between atoms: _524  and  _525
REMARK  201  A    between atoms: _527  and  _529
REMARK  202  A    between atoms: _529  and  _530
REMARK  203  A    between atoms: _529  and  _532
REMARK  204  A    between atoms: _532  and  _533
REMARK  205  A    between atoms: _543  and  _545
REMARK  206  A    between atoms: _545  and  _546
REMARK  207  A    between atoms: _545  and  _548
REMARK  208  A    between atoms: _548  and  _549
REMARK  209  A    between atoms: _552  and  _554
REMARK  210  A    between atoms: _554  and  _555
REMARK  211  A    between atoms: _554  and  _557
REMARK  212  A    between atoms: _557  and  _558
REMARK  213  A    between atoms: _561  and  _563
REMARK  214  A    between atoms: _563  and  _564
REMARK  215  A    between atoms: _563  and  _566
REMARK  216  A    between atoms: _566  and  _567
REMARK  217  A    between atoms: _567  and  _568
REMARK  218  A    between atoms: _568  and  _569
REMARK  219  A    between atoms: _578  and  _580
REMARK  220  A    between atoms: _580  and  _581
REMARK  221  A    between atoms: _580  and  _583
REMARK  222  A    between atoms: _583  and  _584
REMARK  223  A    between atoms: _594  and  _596
REMARK  224  A    between atoms: _596  and  _597
REMARK  225  A    between atoms: _599  and  _601
REMARK  226  A    between atoms: _601  and  _602
REMARK  227  A    between atoms: _601  and  _604
REMARK  228  A    between atoms: _604  and  _605
REMARK  229  A    between atoms: _610  and  _612
REMARK  230  A    between atoms: _612  and  _613
REMARK  231  A    between atoms: _616  and  _618
REMARK  232  A    between atoms: _618  and  _619
REMARK  233  A    between atoms: _618  and  _621
REMARK  234  A    between atoms: _621  and  _622
REMARK  235  A    between atoms: _625  and  _627
REMARK  236  A    between atoms: _627  and  _628
REMARK  237  A    between atoms: _627  and  _630
REMARK  238  A    between atoms: _630  and  _631
REMARK  239  A    between atoms: _637  and  _639
REMARK  240  A    between atoms: _639  and  _640
REMARK  241  A    between atoms: _639  and  _642
REMARK  242  A    between atoms: _642  and  _643
REMARK  243  A    between atoms: _643  and  _644
REMARK  244  A    between atoms: _647  and  _649
REMARK  245  A    between atoms: _649  and  _650
REMARK  246  A    between atoms: _649  and  _652
REMARK  247  A    between atoms: _652  and  _653
REMARK  248  A    between atoms: _653  and  _654
REMARK  249  A    between atoms: _654  and  _655
REMARK                            x       y       z     vdW  Elec       q    Type
REMARK                         _______ _______ _______ _____ _____    ______ ____
ROOT
ATOM      1  O   HOH     1      -6.627 -18.301  22.851  0.00  0.00    +0.000 OA
ENDROOT
TORSDOF 0
REMARK  Name = ../refined-set-2016/3jzj/3jzj_pocket.pdb
REMARK  249 active torsions:
REMARK  status: ('A' for Active; 'I' for Inactive)
REMARK    1  A    between atoms: _1  and  _3
REMARK    2  A    between atoms: _3  and  _4
REMARK    3  A    between atoms: _3  and  _6
REMARK    4  A    between atoms: _6  and  _7
REMARK    5  A    between atoms: _10  and  _12
REMARK    6  A    between atoms: _12  and  _13
REMARK    7  A    between atoms: _12  and  _15
REMARK    8  A    between atoms: _15  and  _16
REMARK    9  A    between atoms: _19  and  _21
REMARK   10  A    between atoms: _21  and  _22
REMARK   11  A    between atoms: _21  and  _24
REMARK   12  A    between atoms: _24  and  _25
REMARK   13  A    between atoms: _27  and  _29
REMARK   14  A    between atoms: _29  and  _30
REMARK   15  A    between atoms: _29  and  _32
REMARK   16  A    between atoms: _32  and  _33
REMARK   17  A    between atoms: _38  and  _40
REMARK   18  A    between atoms: _40  and  _41
REMARK   19  A    between atoms: _40  and  _43
REMARK   20  A    between atoms: _43  and  _44
REMARK   21  A    between atoms: _44  and  _45
REMARK   22  A    between atoms: _48  and  _50
REMARK   23  A    between atoms: _50  and  _51
REMARK   24  A    between atoms: _54  and  _56
REMARK   25  A    between atoms: _56  and  _57
REMARK   26  A    between atoms: _56  and  _59
REMARK   27  A    between atoms: _59  and  _60
REMARK   28  A    between atoms: _60  and  _61
REMARK   29  A    between atoms: _64  and  _66
REMARK   30  A    between atoms: _66  and  _67
REMARK   31  A    between atoms: _66  and  _69
REMARK   32  A    between atoms: _69  and  _70
REMARK   33  A    between atoms: _70  and  _71
REMARK   34  A    between atoms: _71  and  _72
REMARK   35  A    between atoms: _72  and  _73
REMARK   36  A    between atoms: _77  and  _79
REMARK   37  A    between atoms: _79  and  _80
REMARK   38  A    between atoms: _79  and  _82
REMARK   39  A    between atoms: _82  and  _83
REMARK   40  A    between atoms: _88  and  _89
REMARK   41  A    between atoms: _91  and  _93
REMARK   42  A    between atoms: _93  and  _94
REMARK   43  A    between atoms: _93  and  _96
REMARK   44  A    between atoms: _96  and  _97
REMARK   45  A    between atoms: _102  and  _104
REMARK   46  A    between atoms: _104  and  _105
REMARK   47  A    between atoms: _104  and  _107
REMARK   48  A    between atoms: _111  and  _112
REMARK   49  A    between atoms: _117  and  _119
REMARK   50  A    between atoms: _119  and  _120
REMARK   51  A    between atoms: _119  and  _122
REMARK   52  A    between atoms: _122  and  _123
REMARK   53  A    between atoms: _129  and  _131
REMARK   54  A    between atoms: _131  and  _132
REMARK   55  A    between atoms: _134  and  _136
REMARK   56  A    between atoms: _136  and  _137
REMARK   57  A    between atoms: _136  and  _139
REMARK   58  A    between atoms: _139  and  _140
REMARK   59  A    between atoms: _140  and  _141
REMARK   60  A    between atoms: _144  and  _146
REMARK   61  A    between atoms: _146  and  _147
REMARK   62  A    between atoms: _150  and  _152
REMARK   63  A    between atoms: _152  and  _153
REMARK   64  A    between atoms: _152  and  _155
REMARK   65  A    between atoms: _155  and  _156
REMARK   66  A    between atoms: _161  and  _163
REMARK   67  A    between atoms: _163  and  _164
REMARK   68  A    between atoms: _167  and  _169
REMARK   69  A    between atoms: _169  and  _170
REMARK   70  A    between atoms: _169  and  _172
REMARK   71  A    between atoms: _172  and  _173
REMARK   72  A    between atoms: _173  and  _174
REMARK   73  A    between atoms: _174  and  _175
REMARK   74  A    between atoms: _175  and  _176
REMARK   75  A    between atoms: _180  and  _182
REMARK   76  A    between atoms: _182  and  _183
REMARK   77  A    between atoms: _182  and  _185
REMARK   78  A    between atoms: _185  and  _186
REMARK   79  A    between atoms: _186  and  _187
REMARK   80  A    between atoms: _187  and  _188
REMARK   81  A    between atoms: _188  and  _189
REMARK   82  A    between atoms: _193  and  _195
REMARK   83  A    between atoms: _195  and  _196
REMARK   84  A    between atoms: _195  and  _198
REMARK   85  A    between atoms: _198  and  _199
REMARK   86  A    between atoms: _199  and  _200
REMARK   87  A    between atoms: _200  and  _201
REMARK   88  A    between atoms: _210  and  _212
REMARK   89  A    between atoms: _212  and  _213
REMARK   90  A    between atoms: _212  and  _215
REMARK   91  A    between atoms: _215  and  _216
REMARK   92  A    between atoms: _216  and  _217
REMARK   93  A    between atoms: _220  and  _222
REMARK   94  A    between atoms: _222  and  _223
REMARK   95  A    between atoms: _222  and  _225
REMARK   96  A    between atoms: _228  and  _230
REMARK   97  A    between atoms: _230  and  _231
REMARK   98  A    between atoms: _234  and  _236
REMARK   99  A    between atoms: _236  and  _237
REMARK  100  A    between atoms: _236  and  _239
REMARK  101  A    between atoms: _239  and  _240
REMARK  102  A    between atoms: _250  and  _252
REMARK  103  A    between atoms: _252  and  _253
REMARK  104  A    between atoms: _252  and  _255
REMARK  105  A    between atoms: _258  and  _260
REMARK  106  A    between atoms: _260  and  _261
REMARK  107  A    between atoms: _260  and  _263
REMARK  108  A    between atoms: _263  and  _264
REMARK  109  A    between atoms: _267  and  _269
REMARK  110  A    between atoms: _269  and  _270
REMARK  111  A    between atoms: _269  and  _272
REMARK  112  A    between atoms: _272  and  _273
REMARK  113  A    between atoms: _279  and  _281
REMARK  114  A    between atoms: _281  and  _282
REMARK  115  A    between atoms: _281  and  _284
REMARK  116  A    between atoms: _284  and  _285
REMARK  117  A    between atoms: _285  and  _286
REMARK  118  A    between atoms: _291  and  _293
REMARK  119  A    between atoms: _293  and  _294
REMARK  120  A    between atoms: _293  and  _296
REMARK  121  A    between atoms: _299  and  _301
REMARK  122  A    between atoms: _301  and  _302
REMARK  123  A    between atoms: _301  and  _304
REMARK  124  A    between atoms: _304  and  _305
REMARK  125  A    between atoms: _308  and  _310
REMARK  126  A    between atoms: _310  and  _311
REMARK  127  A    between atoms: _310  and  _313
REMARK  128  A    between atoms: _313  and  _314
REMARK  129  A    between atoms: _317  and  _319
REMARK  130  A    between atoms: _319  and  _320
REMARK  131  A    between atoms: _319  and  _322
REMARK  132  A    between atoms: _322  and  _323
REMARK  133  A    between atoms: _326  and  _328
REMARK  134  A    between atoms: _328  and  _329
REMARK  135  A    between atoms: _328  and  _331
REMARK  136  A    between atoms: _331  and  _332
REMARK  137  A    between atoms: _335  and  _337
REMARK  138  A    between atoms: _337  and  _338
REMARK  139  A    between atoms: _337  and  _340
REMARK  140  A    between atoms: _340  and  _341
REMARK  141  A    between atoms: _341  and  _342
REMARK  142  A    between atoms: _342  and  _343
REMARK  143  A    between atoms: _352  and  _354
REMARK  144  A    between atoms: _354  and  _355
REMARK  145  A    between atoms: _354  and  _357
REMARK  146  A    between atoms: _357  and  _358
REMARK  147  A    between atoms: _361  and  _363
REMARK  148  A    between atoms: _363  and  _364
REMARK  149  A    between atoms: _363  and  _366
REMARK  150  A    between atoms: _366  and  _367
REMARK  151  A    between atoms: _371  and  _372
REMARK  152  A    between atoms: _377  and  _379
REMARK  153  A    between atoms: _379  and  _380
REMARK  154  A    between atoms: _379  and  _382
REMARK  155  A    between atoms: _382  and  _383
REMARK  156  A    between atoms: _388  and  _389
REMARK  157  A    between atoms: _391  and  _393
REMARK  158  A    between atoms: _393  and  _394
REMARK  159  A    between atoms: _393  and  _396
REMARK  160  A    between atoms: _396  and  _397
REMARK  161  A    between atoms: _407  and  _409
REMARK  162  A    between atoms: _409  and  _410
REMARK  163  A    between atoms: _409  and  _412
REMARK  164  A    between atoms: _412  and  _413
REMARK  165  A    between atoms: _419  and  _421
REMARK  166  A    between atoms: _421  and  _422
REMARK  167  A    between atoms: _421  and  _424
REMARK  168  A    between atoms: _424  and  _425
REMARK  169  A    between atoms: _428  and  _430
REMARK  170  A    between atoms: _430  and  _431
REMARK  171  A    between atoms: _430  and  _433
REMARK  172  A    between atoms: _433  and  _434
REMARK  173  A    between atoms: _444  and  _446
REMARK  174  A    between atoms: _446  and  _447
REMARK  175  A    between atoms: _446  and  _449
REMARK  176  A    between atoms: _449  and  _450
REMARK  177  A    between atoms: _450  and  _451
REMARK  178  A    between atoms: _453  and  _455
REMARK  179  A    between atoms: _455  and  _456
REMARK  180  A    between atoms: _455  and  _458
REMARK  181  A    between atoms: _458  and  _459
REMARK  182  A    between atoms: _464  and  _466
REMARK  183  A    between atoms: _466  and  _467
REMARK  184  A    between atoms: _470  and  _471
REMARK  185  A    between atoms: _476  and  _478
REMARK  186  A    between atoms: _478  and  _479
REMARK  187  A    between atoms: _478  and  _481
REMARK  188  A    between atoms: _481  and  _482
REMARK  189  A    between atoms: _492  and  _494
REMARK  190  A    between atoms: _494  and  _495
REMARK  191  A    between atoms: _499  and  _500
REMARK  192  A    between atoms: _505  and  _507
REMARK  193  A    between atoms: _507  and  _508
REMARK  194  A    between atoms: _507  and  _510
REMARK  195  A    between atoms: _510  and  _511
REMARK  196  A    between atoms: _511  and  _512
REMARK  197  A    between atoms: _517  and  _519
REMARK  198  A    between atoms: _519  and  _520
REMARK  199  A    between atoms: _522  and  _524
REMARK  200  A    between atoms: _524  and  _525
REMARK  201  A    between atoms: _527  and  _529
REMARK  202  A    between atoms: _529  and  _530
REMARK  203  A    between atoms: _529  and  _532
REMARK  204  A    between atoms: _532  and  _533
REMARK  205  A    between atoms: _543  and  _545
REMARK  206  A    between atoms: _545  and  _546
REMARK  207  A    between atoms: _545  and  _548
REMARK  208  A    between atoms: _548  and  _549
REMARK  209  A    between atoms: _552  and  _554
REMARK  210  A    between atoms: _554  and  _555
REMARK  211  A    between atoms: _554  and  _557
REMARK  212  A    between atoms: _557  and  _558
REMARK  213  A    between atoms: _561  and  _563
REMARK  214  A    between atoms: _563  and  _564
REMARK  215  A    between atoms: _563  and  _566
REMARK  216  A    between atoms: _566  and  _567
REMARK  217  A    between atoms: _567  and  _568
REMARK  218  A    between atoms: _568  and  _569
REMARK  219  A    between atoms: _578  and  _580
REMARK  220  A    between atoms: _580  and  _581
REMARK  221  A    between atoms: _580  and  _583
REMARK  222  A    between atoms: _583  and  _584
REMARK  223  A    between atoms: _594  and  _596
REMARK  224  A    between atoms: _596  and  _597
REMARK  225  A    between atoms: _599  and  _601
REMARK  226  A    between atoms: _601  and  _602
REMARK  227  A    between atoms: _601  and  _604
REMARK  228  A    between atoms: _604  and  _605
REMARK  229  A    between atoms: _610  and  _612
REMARK  230  A    between atoms: _612  and  _613
REMARK  231  A    between atoms: _616  and  _618
REMARK  232  A    between atoms: _618  and  _619
REMARK  233  A    between atoms: _618  and  _621
REMARK  234  A    between atoms: _621  and  _622
REMARK  235  A    between atoms: _625  and  _627
REMARK  236  A    between atoms: _627  and  _628
REMARK  237  A    between atoms: _627  and  _630
REMARK  238  A    between atoms: _630  and  _631
REMARK  239  A    between atoms: _637  and  _639
REMARK  240  A    between atoms: _639  and  _640
REMARK  241  A    between atoms: _639  and  _642
REMARK  242  A    between atoms: _642  and  _643
REMARK  243  A    between atoms: _643  and  _644
REMARK  244  A    between atoms: _647  and  _649
REMARK  245  A    between atoms: _649  and  _650
REMARK  246  A    between atoms: _649  and  _652
REMARK  247  A    between atoms: _652  and  _653
REMARK  248  A    between atoms: _653  and  _654
REMARK  249  A    between atoms: _654  and  _655
REMARK                            x       y       z     vdW  Elec       q    Type
REMARK                         _______ _______ _______ _____ _____    ______ ____
ROOT
ATOM      1  O   HOH     1      -3.568 -18.861  22.856  0.00  0.00    +0.000 OA
ENDROOT
TORSDOF 0
