REMARK  Name = ../refined-set-2016/3iod/3iod_pocket.pdb
REMARK  251 active torsions:
REMARK  status: ('A' for Active; 'I' for Inactive)
REMARK    1  A    between atoms: _1  and  _3
REMARK    2  A    between atoms: _3  and  _4
REMARK    3  A    between atoms: _3  and  _6
REMARK    4  A    between atoms: _6  and  _7
REMARK    5  A    between atoms: _10  and  _12
REMARK    6  A    between atoms: _12  and  _13
REMARK    7  A    between atoms: _12  and  _15
REMARK    8  A    between atoms: _19  and  _20
REMARK    9  A    between atoms: _25  and  _27
REMARK   10  A    between atoms: _27  and  _28
REMARK   11  A    between atoms: _27  and  _30
REMARK   12  A    between atoms: _30  and  _31
REMARK   13  A    between atoms: _34  and  _36
REMARK   14  A    between atoms: _36  and  _37
REMARK   15  A    between atoms: _36  and  _39
REMARK   16  A    between atoms: _39  and  _40
REMARK   17  A    between atoms: _40  and  _41
REMARK   18  A    between atoms: _43  and  _45
REMARK   19  A    between atoms: _45  and  _46
REMARK   20  A    between atoms: _48  and  _50
REMARK   21  A    between atoms: _50  and  _51
REMARK   22  A    between atoms: _54  and  _56
REMARK   23  A    between atoms: _56  and  _57
REMARK   24  A    between atoms: _56  and  _59
REMARK   25  A    between atoms: _59  and  _60
REMARK   26  A    between atoms: _63  and  _65
REMARK   27  A    between atoms: _65  and  _66
REMARK   28  A    between atoms: _65  and  _68
REMARK   29  A    between atoms: _68  and  _69
REMARK   30  A    between atoms: _74  and  _76
REMARK   31  A    between atoms: _76  and  _77
REMARK   32  A    between atoms: _76  and  _79
REMARK   33  A    between atoms: _79  and  _80
REMARK   34  A    between atoms: _80  and  _81
REMARK   35  A    between atoms: _84  and  _86
REMARK   36  A    between atoms: _86  and  _87
REMARK   37  A    between atoms: _89  and  _91
REMARK   38  A    between atoms: _91  and  _92
REMARK   39  A    between atoms: _91  and  _94
REMARK   40  A    between atoms: _94  and  _95
REMARK   41  A    between atoms: _100  and  _102
REMARK   42  A    between atoms: _102  and  _103
REMARK   43  A    between atoms: _102  and  _105
REMARK   44  A    between atoms: _105  and  _106
REMARK   45  A    between atoms: _109  and  _111
REMARK   46  A    between atoms: _111  and  _112
REMARK   47  A    between atoms: _115  and  _117
REMARK   48  A    between atoms: _117  and  _118
REMARK   49  A    between atoms: _117  and  _120
REMARK   50  A    between atoms: _120  and  _121
REMARK   51  A    between atoms: _124  and  _126
REMARK   52  A    between atoms: _126  and  _127
REMARK   53  A    between atoms: _126  and  _129
REMARK   54  A    between atoms: _132  and  _134
REMARK   55  A    between atoms: _134  and  _135
REMARK   56  A    between atoms: _134  and  _137
REMARK   57  A    between atoms: _140  and  _142
REMARK   58  A    between atoms: _142  and  _143
REMARK   59  A    between atoms: _142  and  _145
REMARK   60  A    between atoms: _145  and  _146
REMARK   61  A    between atoms: _148  and  _150
REMARK   62  A    between atoms: _150  and  _151
REMARK   63  A    between atoms: _150  and  _153
REMARK   64  A    between atoms: _153  and  _154
REMARK   65  A    between atoms: _157  and  _159
REMARK   66  A    between atoms: _159  and  _160
REMARK   67  A    between atoms: _159  and  _162
REMARK   68  A    between atoms: _162  and  _163
REMARK   69  A    between atoms: _169  and  _171
REMARK   70  A    between atoms: _171  and  _172
REMARK   71  A    between atoms: _171  and  _174
REMARK   72  A    between atoms: _177  and  _179
REMARK   73  A    between atoms: _179  and  _180
REMARK   74  A    between atoms: _179  and  _182
REMARK   75  A    between atoms: _182  and  _183
REMARK   76  A    between atoms: _189  and  _190
REMARK   77  A    between atoms: _195  and  _197
REMARK   78  A    between atoms: _197  and  _198
REMARK   79  A    between atoms: _197  and  _200
REMARK   80  A    between atoms: _200  and  _201
REMARK   81  A    between atoms: _201  and  _202
REMARK   82  A    between atoms: _204  and  _206
REMARK   83  A    between atoms: _206  and  _207
REMARK   84  A    between atoms: _206  and  _209
REMARK   85  A    between atoms: _209  and  _210
REMARK   86  A    between atoms: _210  and  _211
REMARK   87  A    between atoms: _216  and  _218
REMARK   88  A    between atoms: _218  and  _219
REMARK   89  A    between atoms: _218  and  _221
REMARK   90  A    between atoms: _221  and  _222
REMARK   91  A    between atoms: _228  and  _230
REMARK   92  A    between atoms: _230  and  _231
REMARK   93  A    between atoms: _230  and  _233
REMARK   94  A    between atoms: _233  and  _234
REMARK   95  A    between atoms: _239  and  _240
REMARK   96  A    between atoms: _242  and  _244
REMARK   97  A    between atoms: _244  and  _245
REMARK   98  A    between atoms: _244  and  _247
REMARK   99  A    between atoms: _247  and  _248
REMARK  100  A    between atoms: _255  and  _256
REMARK  101  A    between atoms: _261  and  _263
REMARK  102  A    between atoms: _263  and  _264
REMARK  103  A    between atoms: _263  and  _266
REMARK  104  A    between atoms: _266  and  _267
REMARK  105  A    between atoms: _267  and  _268
REMARK  106  A    between atoms: _270  and  _272
REMARK  107  A    between atoms: _272  and  _273
REMARK  108  A    between atoms: _272  and  _275
REMARK  109  A    between atoms: _275  and  _276
REMARK  110  A    between atoms: _281  and  _282
REMARK  111  A    between atoms: _284  and  _286
REMARK  112  A    between atoms: _286  and  _287
REMARK  113  A    between atoms: _286  and  _289
REMARK  114  A    between atoms: _289  and  _290
REMARK  115  A    between atoms: _295  and  _297
REMARK  116  A    between atoms: _297  and  _298
REMARK  117  A    between atoms: _297  and  _300
REMARK  118  A    between atoms: _300  and  _301
REMARK  119  A    between atoms: _307  and  _309
REMARK  120  A    between atoms: _309  and  _310
REMARK  121  A    between atoms: _312  and  _314
REMARK  122  A    between atoms: _314  and  _315
REMARK  123  A    between atoms: _314  and  _317
REMARK  124  A    between atoms: _320  and  _322
REMARK  125  A    between atoms: _322  and  _323
REMARK  126  A    between atoms: _322  and  _325
REMARK  127  A    between atoms: _325  and  _326
REMARK  128  A    between atoms: _329  and  _331
REMARK  129  A    between atoms: _331  and  _332
REMARK  130  A    between atoms: _331  and  _334
REMARK  131  A    between atoms: _334  and  _335
REMARK  132  A    between atoms: _338  and  _340
REMARK  133  A    between atoms: _340  and  _341
REMARK  134  A    between atoms: _340  and  _343
REMARK  135  A    between atoms: _346  and  _348
REMARK  136  A    between atoms: _348  and  _349
REMARK  137  A    between atoms: _348  and  _351
REMARK  138  A    between atoms: _354  and  _356
REMARK  139  A    between atoms: _356  and  _357
REMARK  140  A    between atoms: _356  and  _359
REMARK  141  A    between atoms: _359  and  _360
REMARK  142  A    between atoms: _363  and  _365
REMARK  143  A    between atoms: _365  and  _366
REMARK  144  A    between atoms: _365  and  _368
REMARK  145  A    between atoms: _368  and  _369
REMARK  146  A    between atoms: _375  and  _377
REMARK  147  A    between atoms: _377  and  _378
REMARK  148  A    between atoms: _377  and  _380
REMARK  149  A    between atoms: _380  and  _381
REMARK  150  A    between atoms: _387  and  _389
REMARK  151  A    between atoms: _389  and  _390
REMARK  152  A    between atoms: _392  and  _394
REMARK  153  A    between atoms: _394  and  _395
REMARK  154  A    between atoms: _394  and  _397
REMARK  155  A    between atoms: _397  and  _398
REMARK  156  A    between atoms: _398  and  _399
REMARK  157  A    between atoms: _402  and  _404
REMARK  158  A    between atoms: _404  and  _405
REMARK  159  A    between atoms: _404  and  _407
REMARK  160  A    between atoms: _407  and  _408
REMARK  161  A    between atoms: _408  and  _409
REMARK  162  A    between atoms: _409  and  _410
REMARK  163  A    between atoms: _410  and  _411
REMARK  164  A    between atoms: _415  and  _417
REMARK  165  A    between atoms: _417  and  _418
REMARK  166  A    between atoms: _417  and  _420
REMARK  167  A    between atoms: _420  and  _421
REMARK  168  A    between atoms: _424  and  _426
REMARK  169  A    between atoms: _426  and  _427
REMARK  170  A    between atoms: _426  and  _429
REMARK  171  A    between atoms: _429  and  _430
REMARK  172  A    between atoms: _435  and  _436
REMARK  173  A    between atoms: _438  and  _440
REMARK  174  A    between atoms: _440  and  _441
REMARK  175  A    between atoms: _440  and  _443
REMARK  176  A    between atoms: _443  and  _444
REMARK  177  A    between atoms: _444  and  _445
REMARK  178  A    between atoms: _450  and  _452
REMARK  179  A    between atoms: _452  and  _453
REMARK  180  A    between atoms: _452  and  _455
REMARK  181  A    between atoms: _455  and  _456
REMARK  182  A    between atoms: _459  and  _461
REMARK  183  A    between atoms: _461  and  _462
REMARK  184  A    between atoms: _461  and  _464
REMARK  185  A    between atoms: _464  and  _465
REMARK  186  A    between atoms: _468  and  _470
REMARK  187  A    between atoms: _470  and  _471
REMARK  188  A    between atoms: _470  and  _473
REMARK  189  A    between atoms: _476  and  _478
REMARK  190  A    between atoms: _478  and  _479
REMARK  191  A    between atoms: _478  and  _481
REMARK  192  A    between atoms: _485  and  _486
REMARK  193  A    between atoms: _491  and  _493
REMARK  194  A    between atoms: _493  and  _494
REMARK  195  A    between atoms: _493  and  _496
REMARK  196  A    between atoms: _496  and  _497
REMARK  197  A    between atoms: _500  and  _502
REMARK  198  A    between atoms: _502  and  _503
REMARK  199  A    between atoms: _502  and  _505
REMARK  200  A    between atoms: _508  and  _510
REMARK  201  A    between atoms: _510  and  _511
REMARK  202  A    between atoms: _510  and  _513
REMARK  203  A    between atoms: _513  and  _514
REMARK  204  A    between atoms: _514  and  _515
REMARK  205  A    between atoms: _515  and  _516
REMARK  206  A    between atoms: _525  and  _527
REMARK  207  A    between atoms: _527  and  _528
REMARK  208  A    between atoms: _527  and  _530
REMARK  209  A    between atoms: _530  and  _531
REMARK  210  A    between atoms: _531  and  _532
REMARK  211  A    between atoms: _535  and  _537
REMARK  212  A    between atoms: _537  and  _538
REMARK  213  A    between atoms: _537  and  _540
REMARK  214  A    between atoms: _540  and  _541
REMARK  215  A    between atoms: _544  and  _546
REMARK  216  A    between atoms: _546  and  _547
REMARK  217  A    between atoms: _550  and  _552
REMARK  218  A    between atoms: _552  and  _553
REMARK  219  A    between atoms: _552  and  _555
REMARK  220  A    between atoms: _555  and  _556
REMARK  221  A    between atoms: _556  and  _557
REMARK  222  A    between atoms: _559  and  _561
REMARK  223  A    between atoms: _561  and  _562
REMARK  224  A    between atoms: _561  and  _564
REMARK  225  A    between atoms: _564  and  _565
REMARK  226  A    between atoms: _567  and  _569
REMARK  227  A    between atoms: _569  and  _570
REMARK  228  A    between atoms: _569  and  _572
REMARK  229  A    between atoms: _572  and  _573
REMARK  230  A    between atoms: _575  and  _577
REMARK  231  A    between atoms: _577  and  _578
REMARK  232  A    between atoms: _577  and  _580
REMARK  233  A    between atoms: _580  and  _581
REMARK  234  A    between atoms: _581  and  _582
REMARK  235  A    between atoms: _582  and  _583
REMARK  236  A    between atoms: _592  and  _594
REMARK  237  A    between atoms: _594  and  _595
REMARK  238  A    between atoms: _594  and  _597
REMARK  239  A    between atoms: _597  and  _598
REMARK  240  A    between atoms: _603  and  _605
REMARK  241  A    between atoms: _605  and  _606
REMARK  242  A    between atoms: _605  and  _608
REMARK  243  A    between atoms: _608  and  _609
REMARK  244  A    between atoms: _612  and  _614
REMARK  245  A    between atoms: _614  and  _615
REMARK  246  A    between atoms: _614  and  _617
REMARK  247  A    between atoms: _617  and  _618
REMARK  248  A    between atoms: _621  and  _623
REMARK  249  A    between atoms: _623  and  _624
REMARK  250  A    between atoms: _623  and  _626
REMARK  251  A    between atoms: _626  and  _627
REMARK                            x       y       z     vdW  Elec       q    Type
REMARK                         _______ _______ _______ _____ _____    ______ ____
ROOT
ATOM      1  CA  HIS A   9      14.723  17.904  -3.745  0.00  0.00    +0.155 C 
ENDROOT
BRANCH   1   2
ATOM      2  C   HIS A   9      13.507  17.242  -4.415  0.00  0.00    +0.241 C 
ATOM      3  O   HIS A   9      12.569  16.794  -3.751  0.00  0.00    -0.273 OA
ATOM      4  N   GLU A  10      13.533  17.166  -5.736  0.00  0.00    -0.297 N 
ATOM      5  H   GLU A  10      14.376  17.494  -6.249  0.00  0.00    +0.150 HD
BRANCH   4   6
ATOM      6  CA  GLU A  10      12.403  16.631  -6.485  0.00  0.00    +0.149 C 
BRANCH   6   7
ATOM      7  C   GLU A  10      12.048  15.182  -6.092  0.00  0.00    +0.241 C 
ATOM      8  N   GLY A  11      13.031  14.421  -5.611  0.00  0.00    -0.295 N 
ATOM      9  H   GLY A  11      14.004  14.787  -5.598  0.00  0.00    +0.150 HD
ATOM     10  O   GLU A  10      10.893  14.759  -6.237  0.00  0.00    -0.273 OA
BRANCH   8  11
ATOM     11  CA  GLY A  11      12.756  13.072  -5.099  0.00  0.00    +0.176 C 
BRANCH  11  12
ATOM     12  C   GLY A  11      11.810  13.127  -3.899  0.00  0.00    +0.243 C 
ATOM     13  N   HIS A  12      12.101  14.020  -2.960  0.00  0.00    -0.297 N 
ATOM     14  H   HIS A  12      12.986  14.563  -3.018  0.00  0.00    +0.150 HD
ATOM     15  O   GLY A  11      10.835  12.380  -3.820  0.00  0.00    -0.273 OA
BRANCH  13  16
ATOM     16  CA  HIS A  12      11.175  14.244  -1.838  0.00  0.00    +0.155 C 
BRANCH  16  17
ATOM     17  C   HIS A  12       9.825  14.768  -2.315  0.00  0.00    +0.241 C 
ATOM     18  O   HIS A  12       8.798  14.338  -1.817  0.00  0.00    -0.273 OA
ATOM     19  N   LEU A  13       9.824  15.679  -3.287  0.00  0.00    -0.297 N 
ATOM     20  H   LEU A  13      10.727  16.000  -3.692  0.00  0.00    +0.150 HD
BRANCH  19  21
ATOM     21  CA  LEU A  13       8.566  16.235  -3.793  0.00  0.00    +0.149 C 
BRANCH  21  22
ATOM     22  C   LEU A  13       7.684  15.177  -4.459  0.00  0.00    +0.241 C 
ATOM     23  O   LEU A  13       6.448  15.255  -4.390  0.00  0.00    -0.273 OA
ATOM     24  N   ALA A  14       8.299  14.146  -5.037  0.00  0.00    -0.297 N 
ATOM     25  H   ALA A  14       9.335  14.150  -5.123  0.00  0.00    +0.150 HD
BRANCH  24  26
ATOM     26  CA  ALA A  14       7.531  13.000  -5.556  0.00  0.00    +0.149 C 
ATOM     27  CB  ALA A  14       8.418  12.056  -6.336  0.00  0.00    +0.031 C 
BRANCH  26  28
ATOM     28  C   ALA A  14       6.786  12.244  -4.455  0.00  0.00    +0.241 C 
ATOM     29  N   LEU A  15       7.418  12.132  -3.280  0.00  0.00    -0.297 N 
ATOM     30  H   LEU A  15       8.399  12.470  -3.207  0.00  0.00    +0.150 HD
ATOM     31  O   ALA A  14       5.671  11.755  -4.678  0.00  0.00    -0.273 OA
BRANCH  29  32
ATOM     32  CA  LEU A  15       6.787  11.555  -2.096  0.00  0.00    +0.149 C 
BRANCH  32  33
ATOM     33  C   LEU A  15       5.606  12.395  -1.672  0.00  0.00    +0.241 C 
ATOM     34  O   LEU A  15       4.495  11.874  -1.456  0.00  0.00    -0.273 OA
ATOM     35  N   VAL A  16       5.849  13.698  -1.540  0.00  0.00    -0.298 N 
ATOM     36  H   VAL A  16       6.816  14.049  -1.692  0.00  0.00    +0.150 HD
BRANCH  35  37
ATOM     37  CA  VAL A  16       4.799  14.646  -1.189  0.00  0.00    +0.137 C 
BRANCH  37  38
ATOM     38  CB  VAL A  16       5.360  16.073  -1.178  0.00  0.00    +0.026 C 
ATOM     39  CG2 VAL A  16       6.378  16.251  -0.035  0.00  0.00    +0.002 C 
ATOM     40  CG1 VAL A  16       4.223  17.109  -1.093  0.00  0.00    +0.002 C 
ENDBRANCH  37  38
BRANCH  37  41
ATOM     41  C   VAL A  16       3.601  14.570  -2.165  0.00  0.00    +0.227 C 
ATOM     42  O   VAL A  16       2.438  14.573  -1.751  0.00  0.00    -0.286 OA
ENDBRANCH  37  41
ENDBRANCH  35  37
ENDBRANCH  32  33
BRANCH  32  43
ATOM     43  CB  LEU A  15       7.783  11.481  -0.933  0.00  0.00    +0.029 C 
BRANCH  43  44
ATOM     44  CG  LEU A  15       9.071  10.679  -1.094  0.00  0.00    +0.002 C 
ATOM     45  CD2 LEU A  15       9.756  10.540   0.260  0.00  0.00    +0.000 C 
ATOM     46  CD1 LEU A  15       8.794   9.312  -1.635  0.00  0.00    +0.000 C 
ENDBRANCH  43  44
ENDBRANCH  32  43
ENDBRANCH  29  32
ENDBRANCH  26  28
ENDBRANCH  24  26
ENDBRANCH  21  22
BRANCH  21  47
ATOM     47  CB  LEU A  13       8.817  17.441  -4.700  0.00  0.00    +0.029 C 
BRANCH  47  48
ATOM     48  CG  LEU A  13       9.645  18.580  -4.096  0.00  0.00    +0.002 C 
ATOM     49  CD2 LEU A  13       9.154  18.997  -2.716  0.00  0.00    +0.000 C 
ATOM     50  CD1 LEU A  13       9.654  19.776  -5.034  0.00  0.00    +0.000 C 
ENDBRANCH  47  48
ENDBRANCH  21  47
ENDBRANCH  19  21
ENDBRANCH  16  17
BRANCH  16  51
ATOM     51  CB  HIS A  12      11.761  15.201  -0.811  0.00  0.00    +0.076 C 
BRANCH  51  52
ATOM     52  CG  HIS A  12      13.083  14.769  -0.276  0.00  0.00    +0.082 A 
ATOM     53  CD2 HIS A  12      13.412  13.852   0.664  0.00  0.00    +0.115 A 
ATOM     54  NE2 HIS A  12      14.783  13.862   0.773  0.00  0.00    -0.221 NA
ATOM     55  CE1 HIS A  12      15.275  14.743  -0.079  0.00  0.00    +0.199 A 
ATOM     56  ND1 HIS A  12      14.271  15.299  -0.730  0.00  0.00    -0.227 NA
ENDBRANCH  51  52
ENDBRANCH  16  51
ENDBRANCH  13  16
ENDBRANCH  11  12
ENDBRANCH   8  11
ENDBRANCH   6   7
BRANCH   6  57
ATOM     57  CB  GLU A  10      12.694  16.747  -7.982  0.00  0.00    +0.041 C 
BRANCH  57  58
ATOM     58  CG  GLU A  10      11.519  16.437  -8.891  0.00  0.00    +0.116 C 
BRANCH  58  59
ATOM     59  CD  GLU A  10      10.538  17.585  -9.033  0.00  0.00    +0.365 C 
ATOM     60  OE2 GLU A  10      10.751  18.676  -8.444  0.00  0.00    -0.246 OA
ATOM     61  OE1 GLU A  10       9.546  17.384  -9.756  0.00  0.00    -0.246 OA
ENDBRANCH  58  59
ENDBRANCH  57  58
ENDBRANCH   6  57
ENDBRANCH   4   6
ENDBRANCH   1   2
BRANCH   1  64
ATOM     62  C   LEU A   8      14.780  18.838  -1.503  0.00  0.00    +0.241 C 
ATOM     63  O   LEU A   8      15.136  19.952  -1.891  0.00  0.00    -0.273 OA
ATOM     64  N   HIS A   9      14.653  17.791  -2.300  0.00  0.00    -0.297 N 
ATOM     65  H   HIS A   9      14.498  16.854  -1.877  0.00  0.00    +0.150 HD
BRANCH  62  66
ATOM     66  CA  LEU A   8      14.470  18.585  -0.037  0.00  0.00    +0.149 C 
BRANCH  66  68
ATOM     67  C   ALA A   7      16.663  18.675   0.985  0.00  0.00    +0.241 C 
ATOM     68  N   LEU A   8      15.447  19.183   0.833  0.00  0.00    -0.297 N 
ATOM     69  H   LEU A   8      15.192  20.042   1.360  0.00  0.00    +0.150 HD
ATOM     70  O   ALA A   7      17.124  17.783   0.276  0.00  0.00    -0.273 OA
BRANCH  67  71
ATOM     71  CA  ALA A   7      17.454  19.260   2.137  0.00  0.00    +0.149 C 
ATOM     72  CB  ALA A   7      18.795  18.549   2.290  0.00  0.00    +0.031 C 
BRANCH  71  74
ATOM     73  C   GLY A   6      16.193  17.950   3.817  0.00  0.00    +0.243 C 
ATOM     74  N   ALA A   7      16.641  19.126   3.370  0.00  0.00    -0.297 N 
ATOM     75  H   ALA A   7      16.410  19.984   3.910  0.00  0.00    +0.150 HD
ATOM     76  O   GLY A   6      16.496  16.858   3.300  0.00  0.00    -0.273 OA
BRANCH  73  77
ATOM     77  CA  GLY A   6      15.271  18.003   5.033  0.00  0.00    +0.176 C 
BRANCH  77  80
ATOM     78  C   MET A   5      16.140  16.123   6.337  0.00  0.00    +0.241 C 
ATOM     79  O   MET A   5      17.237  16.669   6.496  0.00  0.00    -0.273 OA
ATOM     80  N   GLY A   6      15.137  16.689   5.671  0.00  0.00    -0.295 N 
ATOM     81  H   GLY A   6      14.230  16.184   5.601  0.00  0.00    +0.150 HD
BRANCH  78  82
ATOM     82  CA  MET A   5      15.867  14.738   6.898  0.00  0.00    +0.149 C 
BRANCH  82  85
ATOM     83  C   THR A   4      13.580  13.961   6.658  0.00  0.00    +0.243 C 
ATOM     84  O   THR A   4      13.298  14.285   7.808  0.00  0.00    -0.273 OA
ATOM     85  N   MET A   5      14.805  14.058   6.153  0.00  0.00    -0.297 N 
ATOM     86  H   MET A   5      15.012  13.647   5.220  0.00  0.00    +0.150 HD
BRANCH  83  87
ATOM     87  CA  THR A   4      12.503  13.450   5.692  0.00  0.00    +0.176 C 
BRANCH  87  89
ATOM     88  C   PRO A   3      10.671  11.902   6.048  0.00  0.00    +0.241 C 
ATOM     89  N   THR A   4      11.290  13.034   6.394  0.00  0.00    -0.295 N 
ATOM     90  H   THR A   4      10.909  13.620   7.164  0.00  0.00    +0.150 HD
ATOM     91  O   PRO A   3      11.045  11.198   5.106  0.00  0.00    -0.273 OA
BRANCH  88  94
ATOM     92  C   VAL A   2       7.646  12.220   5.471  0.00  0.00    +0.244 C 
ATOM     93  N   PRO A   3       8.316  11.203   6.020  0.00  0.00    -0.272 N 
ATOM     94  CA  PRO A   3       9.468  11.502   6.868  0.00  0.00    +0.152 C 
ATOM     95  CB  PRO A   3       9.730  10.180   7.591  0.00  0.00    +0.031 C 
ATOM     96  CG  PRO A   3       8.482   9.360   7.357  0.00  0.00    +0.024 C 
ATOM     97  CD  PRO A   3       8.069   9.755   5.967  0.00  0.00    +0.094 C 
ATOM     98  O   VAL A   2       7.956  13.405   5.686  0.00  0.00    -0.273 OA
BRANCH  92  99
ATOM     99  CA  VAL A   2       6.422  11.882   4.604  0.00  0.00    +0.149 C 
BRANCH  99 101
ATOM    100  C   LEU A   1       4.441  10.898   5.640  0.00  0.00    +0.238 C 
ATOM    101  N   VAL A   2       5.233  11.959   5.440  0.00  0.00    -0.297 N 
ATOM    102  H   VAL A   2       4.992  12.863   5.894  0.00  0.00    +0.150 HD
ATOM    103  O   LEU A   1       4.639   9.800   5.109  0.00  0.00    -0.274 OA
BRANCH 100 104
ATOM    104  CA  LEU A   1       3.289  11.103   6.611  0.00  0.00    +0.145 C 
BRANCH 104 105
ATOM    105  N   LEU A   1       1.996  10.678   6.064  0.00  0.00    -0.238 NA
ATOM    106  H   LEU A   1       1.811   9.675   5.861  0.00  0.00    +0.142 HD
ENDBRANCH 104 105
BRANCH 104 107
ATOM    107  CB  LEU A   1       3.592  10.399   7.949  0.00  0.00    +0.026 C 
BRANCH 107 108
ATOM    108  CG  LEU A   1       4.993  10.713   8.523  0.00  0.00    +0.002 C 
ATOM    109  CD2 LEU A   1       5.280   9.771   9.670  0.00  0.00    +0.000 C 
ATOM    110  CD1 LEU A   1       5.143  12.193   8.979  0.00  0.00    +0.000 C 
ENDBRANCH 107 108
ENDBRANCH 104 107
ENDBRANCH 100 104
ENDBRANCH  99 101
BRANCH  99 111
ATOM    111  CB  VAL A   2       6.348  12.845   3.377  0.00  0.00    +0.027 C 
ATOM    112  CG2 VAL A   2       5.070  12.555   2.537  0.00  0.00    +0.002 C 
ATOM    113  CG1 VAL A   2       7.611  12.714   2.499  0.00  0.00    +0.002 C 
ENDBRANCH  99 111
ENDBRANCH  92  99
ENDBRANCH  88  94
ENDBRANCH  87  89
BRANCH  87 114
ATOM    114  CB  THR A   4      12.241  14.623   4.698  0.00  0.00    +0.137 C 
ATOM    115  CG2 THR A   4      10.919  14.432   3.931  0.00  0.00    +0.034 C 
BRANCH 114 116
ATOM    116  OG1 THR A   4      12.208  15.848   5.428  0.00  0.00    -0.382 OA
ATOM    117  HG1 THR A   4      11.483  15.810   6.101  0.00  0.00    +0.210 HD
ENDBRANCH 114 116
ENDBRANCH  87 114
ENDBRANCH  83  87
ENDBRANCH  82  85
BRANCH  82 118
ATOM    118  CB  MET A   5      17.131  13.867   6.928  0.00  0.00    +0.041 C 
BRANCH 118 119
ATOM    119  CG  MET A   5      16.873  12.565   7.667  0.00  0.00    +0.060 C 
BRANCH 119 120
ATOM    120  SD  MET A   5      18.301  11.814   8.490  0.00  0.00    -0.139 S 
ATOM    121  CE  MET A   5      19.248  11.480   7.030  0.00  0.00    +0.069 C 
ENDBRANCH 119 120
ENDBRANCH 118 119
ENDBRANCH  82 118
ENDBRANCH  78  82
ENDBRANCH  77  80
ENDBRANCH  73  77
ENDBRANCH  71  74
ENDBRANCH  67  71
ENDBRANCH  66  68
BRANCH  66 122
ATOM    122  CB  LEU A   8      13.080  19.128   0.284  0.00  0.00    +0.029 C 
BRANCH 122 123
ATOM    123  CG  LEU A   8      12.566  18.956   1.716  0.00  0.00    +0.002 C 
ATOM    124  CD2 LEU A   8      12.660  17.490   2.170  0.00  0.00    +0.000 C 
ATOM    125  CD1 LEU A   8      11.149  19.452   1.786  0.00  0.00    +0.000 C 
ENDBRANCH 122 123
ENDBRANCH  66 122
ENDBRANCH  62  66
ENDBRANCH   1  64
BRANCH   1 126
ATOM    126  CB  HIS A   9      16.031  17.295  -4.254  0.00  0.00    +0.076 C 
BRANCH 126 127
ATOM    127  CG  HIS A   9      16.312  15.923  -3.727  0.00  0.00    +0.082 A 
ATOM    128  CD2 HIS A   9      17.268  15.473  -2.886  0.00  0.00    +0.115 A 
ATOM    129  NE2 HIS A   9      17.086  14.116  -2.755  0.00  0.00    -0.221 NA
ATOM    130  CE1 HIS A   9      16.054  13.747  -3.490  0.00  0.00    +0.199 A 
ATOM    131  ND1 HIS A   9      15.575  14.818  -4.095  0.00  0.00    -0.227 NA
ENDBRANCH 126 127
ENDBRANCH   1 126
TORSDOF 53
REMARK  Name = ../refined-set-2016/3iod/3iod_pocket.pdb
REMARK  251 active torsions:
REMARK  status: ('A' for Active; 'I' for Inactive)
REMARK    1  A    between atoms: _1  and  _3
REMARK    2  A    between atoms: _3  and  _4
REMARK    3  A    between atoms: _3  and  _6
REMARK    4  A    between atoms: _6  and  _7
REMARK    5  A    between atoms: _10  and  _12
REMARK    6  A    between atoms: _12  and  _13
REMARK    7  A    between atoms: _12  and  _15
REMARK    8  A    between atoms: _19  and  _20
REMARK    9  A    between atoms: _25  and  _27
REMARK   10  A    between atoms: _27  and  _28
REMARK   11  A    between atoms: _27  and  _30
REMARK   12  A    between atoms: _30  and  _31
REMARK   13  A    between atoms: _34  and  _36
REMARK   14  A    between atoms: _36  and  _37
REMARK   15  A    between atoms: _36  and  _39
REMARK   16  A    between atoms: _39  and  _40
REMARK   17  A    between atoms: _40  and  _41
REMARK   18  A    between atoms: _43  and  _45
REMARK   19  A    between atoms: _45  and  _46
REMARK   20  A    between atoms: _48  and  _50
REMARK   21  A    between atoms: _50  and  _51
REMARK   22  A    between atoms: _54  and  _56
REMARK   23  A    between atoms: _56  and  _57
REMARK   24  A    between atoms: _56  and  _59
REMARK   25  A    between atoms: _59  and  _60
REMARK   26  A    between atoms: _63  and  _65
REMARK   27  A    between atoms: _65  and  _66
REMARK   28  A    between atoms: _65  and  _68
REMARK   29  A    between atoms: _68  and  _69
REMARK   30  A    between atoms: _74  and  _76
REMARK   31  A    between atoms: _76  and  _77
REMARK   32  A    between atoms: _76  and  _79
REMARK   33  A    between atoms: _79  and  _80
REMARK   34  A    between atoms: _80  and  _81
REMARK   35  A    between atoms: _84  and  _86
REMARK   36  A    between atoms: _86  and  _87
REMARK   37  A    between atoms: _89  and  _91
REMARK   38  A    between atoms: _91  and  _92
REMARK   39  A    between atoms: _91  and  _94
REMARK   40  A    between atoms: _94  and  _95
REMARK   41  A    between atoms: _100  and  _102
REMARK   42  A    between atoms: _102  and  _103
REMARK   43  A    between atoms: _102  and  _105
REMARK   44  A    between atoms: _105  and  _106
REMARK   45  A    between atoms: _109  and  _111
REMARK   46  A    between atoms: _111  and  _112
REMARK   47  A    between atoms: _115  and  _117
REMARK   48  A    between atoms: _117  and  _118
REMARK   49  A    between atoms: _117  and  _120
REMARK   50  A    between atoms: _120  and  _121
REMARK   51  A    between atoms: _124  and  _126
REMARK   52  A    between atoms: _126  and  _127
REMARK   53  A    between atoms: _126  and  _129
REMARK   54  A    between atoms: _132  and  _134
REMARK   55  A    between atoms: _134  and  _135
REMARK   56  A    between atoms: _134  and  _137
REMARK   57  A    between atoms: _140  and  _142
REMARK   58  A    between atoms: _142  and  _143
REMARK   59  A    between atoms: _142  and  _145
REMARK   60  A    between atoms: _145  and  _146
REMARK   61  A    between atoms: _148  and  _150
REMARK   62  A    between atoms: _150  and  _151
REMARK   63  A    between atoms: _150  and  _153
REMARK   64  A    between atoms: _153  and  _154
REMARK   65  A    between atoms: _157  and  _159
REMARK   66  A    between atoms: _159  and  _160
REMARK   67  A    between atoms: _159  and  _162
REMARK   68  A    between atoms: _162  and  _163
REMARK   69  A    between atoms: _169  and  _171
REMARK   70  A    between atoms: _171  and  _172
REMARK   71  A    between atoms: _171  and  _174
REMARK   72  A    between atoms: _177  and  _179
REMARK   73  A    between atoms: _179  and  _180
REMARK   74  A    between atoms: _179  and  _182
REMARK   75  A    between atoms: _182  and  _183
REMARK   76  A    between atoms: _189  and  _190
REMARK   77  A    between atoms: _195  and  _197
REMARK   78  A    between atoms: _197  and  _198
REMARK   79  A    between atoms: _197  and  _200
REMARK   80  A    between atoms: _200  and  _201
REMARK   81  A    between atoms: _201  and  _202
REMARK   82  A    between atoms: _204  and  _206
REMARK   83  A    between atoms: _206  and  _207
REMARK   84  A    between atoms: _206  and  _209
REMARK   85  A    between atoms: _209  and  _210
REMARK   86  A    between atoms: _210  and  _211
REMARK   87  A    between atoms: _216  and  _218
REMARK   88  A    between atoms: _218  and  _219
REMARK   89  A    between atoms: _218  and  _221
REMARK   90  A    between atoms: _221  and  _222
REMARK   91  A    between atoms: _228  and  _230
REMARK   92  A    between atoms: _230  and  _231
REMARK   93  A    between atoms: _230  and  _233
REMARK   94  A    between atoms: _233  and  _234
REMARK   95  A    between atoms: _239  and  _240
REMARK   96  A    between atoms: _242  and  _244
REMARK   97  A    between atoms: _244  and  _245
REMARK   98  A    between atoms: _244  and  _247
REMARK   99  A    between atoms: _247  and  _248
REMARK  100  A    between atoms: _255  and  _256
REMARK  101  A    between atoms: _261  and  _263
REMARK  102  A    between atoms: _263  and  _264
REMARK  103  A    between atoms: _263  and  _266
REMARK  104  A    between atoms: _266  and  _267
REMARK  105  A    between atoms: _267  and  _268
REMARK  106  A    between atoms: _270  and  _272
REMARK  107  A    between atoms: _272  and  _273
REMARK  108  A    between atoms: _272  and  _275
REMARK  109  A    between atoms: _275  and  _276
REMARK  110  A    between atoms: _281  and  _282
REMARK  111  A    between atoms: _284  and  _286
REMARK  112  A    between atoms: _286  and  _287
REMARK  113  A    between atoms: _286  and  _289
REMARK  114  A    between atoms: _289  and  _290
REMARK  115  A    between atoms: _295  and  _297
REMARK  116  A    between atoms: _297  and  _298
REMARK  117  A    between atoms: _297  and  _300
REMARK  118  A    between atoms: _300  and  _301
REMARK  119  A    between atoms: _307  and  _309
REMARK  120  A    between atoms: _309  and  _310
REMARK  121  A    between atoms: _312  and  _314
REMARK  122  A    between atoms: _314  and  _315
REMARK  123  A    between atoms: _314  and  _317
REMARK  124  A    between atoms: _320  and  _322
REMARK  125  A    between atoms: _322  and  _323
REMARK  126  A    between atoms: _322  and  _325
REMARK  127  A    between atoms: _325  and  _326
REMARK  128  A    between atoms: _329  and  _331
REMARK  129  A    between atoms: _331  and  _332
REMARK  130  A    between atoms: _331  and  _334
REMARK  131  A    between atoms: _334  and  _335
REMARK  132  A    between atoms: _338  and  _340
REMARK  133  A    between atoms: _340  and  _341
REMARK  134  A    between atoms: _340  and  _343
REMARK  135  A    between atoms: _346  and  _348
REMARK  136  A    between atoms: _348  and  _349
REMARK  137  A    between atoms: _348  and  _351
REMARK  138  A    between atoms: _354  and  _356
REMARK  139  A    between atoms: _356  and  _357
REMARK  140  A    between atoms: _356  and  _359
REMARK  141  A    between atoms: _359  and  _360
REMARK  142  A    between atoms: _363  and  _365
REMARK  143  A    between atoms: _365  and  _366
REMARK  144  A    between atoms: _365  and  _368
REMARK  145  A    between atoms: _368  and  _369
REMARK  146  A    between atoms: _375  and  _377
REMARK  147  A    between atoms: _377  and  _378
REMARK  148  A    between atoms: _377  and  _380
REMARK  149  A    between atoms: _380  and  _381
REMARK  150  A    between atoms: _387  and  _389
REMARK  151  A    between atoms: _389  and  _390
REMARK  152  A    between atoms: _392  and  _394
REMARK  153  A    between atoms: _394  and  _395
REMARK  154  A    between atoms: _394  and  _397
REMARK  155  A    between atoms: _397  and  _398
REMARK  156  A    between atoms: _398  and  _399
REMARK  157  A    between atoms: _402  and  _404
REMARK  158  A    between atoms: _404  and  _405
REMARK  159  A    between atoms: _404  and  _407
REMARK  160  A    between atoms: _407  and  _408
REMARK  161  A    between atoms: _408  and  _409
REMARK  162  A    between atoms: _409  and  _410
REMARK  163  A    between atoms: _410  and  _411
REMARK  164  A    between atoms: _415  and  _417
REMARK  165  A    between atoms: _417  and  _418
REMARK  166  A    between atoms: _417  and  _420
REMARK  167  A    between atoms: _420  and  _421
REMARK  168  A    between atoms: _424  and  _426
REMARK  169  A    between atoms: _426  and  _427
REMARK  170  A    between atoms: _426  and  _429
REMARK  171  A    between atoms: _429  and  _430
REMARK  172  A    between atoms: _435  and  _436
REMARK  173  A    between atoms: _438  and  _440
REMARK  174  A    between atoms: _440  and  _441
REMARK  175  A    between atoms: _440  and  _443
REMARK  176  A    between atoms: _443  and  _444
REMARK  177  A    between atoms: _444  and  _445
REMARK  178  A    between atoms: _450  and  _452
REMARK  179  A    between atoms: _452  and  _453
REMARK  180  A    between atoms: _452  and  _455
REMARK  181  A    between atoms: _455  and  _456
REMARK  182  A    between atoms: _459  and  _461
REMARK  183  A    between atoms: _461  and  _462
REMARK  184  A    between atoms: _461  and  _464
REMARK  185  A    between atoms: _464  and  _465
REMARK  186  A    between atoms: _468  and  _470
REMARK  187  A    between atoms: _470  and  _471
REMARK  188  A    between atoms: _470  and  _473
REMARK  189  A    between atoms: _476  and  _478
REMARK  190  A    between atoms: _478  and  _479
REMARK  191  A    between atoms: _478  and  _481
REMARK  192  A    between atoms: _485  and  _486
REMARK  193  A    between atoms: _491  and  _493
REMARK  194  A    between atoms: _493  and  _494
REMARK  195  A    between atoms: _493  and  _496
REMARK  196  A    between atoms: _496  and  _497
REMARK  197  A    between atoms: _500  and  _502
REMARK  198  A    between atoms: _502  and  _503
REMARK  199  A    between atoms: _502  and  _505
REMARK  200  A    between atoms: _508  and  _510
REMARK  201  A    between atoms: _510  and  _511
REMARK  202  A    between atoms: _510  and  _513
REMARK  203  A    between atoms: _513  and  _514
REMARK  204  A    between atoms: _514  and  _515
REMARK  205  A    between atoms: _515  and  _516
REMARK  206  A    between atoms: _525  and  _527
REMARK  207  A    between atoms: _527  and  _528
REMARK  208  A    between atoms: _527  and  _530
REMARK  209  A    between atoms: _530  and  _531
REMARK  210  A    between atoms: _531  and  _532
REMARK  211  A    between atoms: _535  and  _537
REMARK  212  A    between atoms: _537  and  _538
REMARK  213  A    between atoms: _537  and  _540
REMARK  214  A    between atoms: _540  and  _541
REMARK  215  A    between atoms: _544  and  _546
REMARK  216  A    between atoms: _546  and  _547
REMARK  217  A    between atoms: _550  and  _552
REMARK  218  A    between atoms: _552  and  _553
REMARK  219  A    between atoms: _552  and  _555
REMARK  220  A    between atoms: _555  and  _556
REMARK  221  A    between atoms: _556  and  _557
REMARK  222  A    between atoms: _559  and  _561
REMARK  223  A    between atoms: _561  and  _562
REMARK  224  A    between atoms: _561  and  _564
REMARK  225  A    between atoms: _564  and  _565
REMARK  226  A    between atoms: _567  and  _569
REMARK  227  A    between atoms: _569  and  _570
REMARK  228  A    between atoms: _569  and  _572
REMARK  229  A    between atoms: _572  and  _573
REMARK  230  A    between atoms: _575  and  _577
REMARK  231  A    between atoms: _577  and  _578
REMARK  232  A    between atoms: _577  and  _580
REMARK  233  A    between atoms: _580  and  _581
REMARK  234  A    between atoms: _581  and  _582
REMARK  235  A    between atoms: _582  and  _583
REMARK  236  A    between atoms: _592  and  _594
REMARK  237  A    between atoms: _594  and  _595
REMARK  238  A    between atoms: _594  and  _597
REMARK  239  A    between atoms: _597  and  _598
REMARK  240  A    between atoms: _603  and  _605
REMARK  241  A    between atoms: _605  and  _606
REMARK  242  A    between atoms: _605  and  _608
REMARK  243  A    between atoms: _608  and  _609
REMARK  244  A    between atoms: _612  and  _614
REMARK  245  A    between atoms: _614  and  _615
REMARK  246  A    between atoms: _614  and  _617
REMARK  247  A    between atoms: _617  and  _618
REMARK  248  A    between atoms: _621  and  _623
REMARK  249  A    between atoms: _623  and  _624
REMARK  250  A    between atoms: _623  and  _626
REMARK  251  A    between atoms: _626  and  _627
REMARK                            x       y       z     vdW  Elec       q    Type
REMARK                         _______ _______ _______ _____ _____    ______ ____
ROOT
ATOM      1  CA  ASN A   6      18.170  12.073  13.357  0.00  0.00    +0.158 C 
ENDROOT
BRANCH   1   2
ATOM      2  C   ASN A   6      19.575  11.665  13.783  0.00  0.00    +0.244 C 
ATOM      3  N   PRO A   7      20.047  12.158  14.942  0.00  0.00    -0.272 N 
ATOM      4  CD  PRO A   7      19.389  12.987  15.965  0.00  0.00    +0.094 C 
ATOM      5  CG  PRO A   7      20.547  13.633  16.658  0.00  0.00    +0.024 C 
ATOM      6  CB  PRO A   7      21.641  12.635  16.612  0.00  0.00    +0.031 C 
ATOM      7  CA  PRO A   7      21.433  11.855  15.305  0.00  0.00    +0.152 C 
ATOM      8  O   ASN A   6      20.225  10.881  13.079  0.00  0.00    -0.273 OA
BRANCH   7   9
ATOM      9  C   PRO A   7      21.716  10.358  15.520  0.00  0.00    +0.241 C 
ATOM     10  N   MET A   8      20.670   9.571  15.783  0.00  0.00    -0.297 N 
ATOM     11  H   MET A   8      19.711   9.971  15.734  0.00  0.00    +0.150 HD
ATOM     12  O   PRO A   7      22.873   9.932  15.419  0.00  0.00    -0.273 OA
BRANCH  10  13
ATOM     13  CA  MET A   8      20.836   8.155  16.140  0.00  0.00    +0.149 C 
BRANCH  13  14
ATOM     14  C   MET A   8      21.174   7.220  14.954  0.00  0.00    +0.241 C 
ATOM     15  O   MET A   8      21.680   6.098  15.165  0.00  0.00    -0.273 OA
ATOM     16  N   GLN A   9      20.889   7.659  13.724  0.00  0.00    -0.297 N 
ATOM     17  H   GLN A   9      20.434   8.586  13.597  0.00  0.00    +0.150 HD
BRANCH  16  18
ATOM     18  CA  GLN A   9      21.217   6.835  12.548  0.00  0.00    +0.149 C 
BRANCH  18  19
ATOM     19  C   GLN A   9      22.577   7.220  11.954  0.00  0.00    +0.241 C 
ATOM     20  N   PHE A  10      23.226   8.187  12.599  0.00  0.00    -0.298 N 
ATOM     21  H   PHE A  10      22.753   8.666  13.391  0.00  0.00    +0.150 HD
ATOM     22  O   GLN A   9      23.016   6.659  10.935  0.00  0.00    -0.273 OA
BRANCH  20  23
ATOM     23  CA  PHE A  10      24.576   8.598  12.235  0.00  0.00    +0.141 C 
BRANCH  23  24
ATOM     24  C   PHE A  10      25.625   7.949  13.138  0.00  0.00    +0.227 C 
ATOM     25  O   PHE A  10      25.287   7.288  14.124  0.00  0.00    -0.286 OA
ENDBRANCH  23  24
BRANCH  23  26
ATOM     26  CB  PHE A  10      24.689  10.120  12.285  0.00  0.00    +0.054 C 
BRANCH  26  27
ATOM     27  CG  PHE A  10      23.979  10.811  11.161  0.00  0.00    -0.020 A 
ATOM     28  CD2 PHE A  10      22.643  11.192  11.294  0.00  0.00    -0.004 A 
ATOM     29  CE2 PHE A  10      21.982  11.840  10.253  0.00  0.00    -0.000 A 
ATOM     30  CZ  PHE A  10      22.656  12.107   9.052  0.00  0.00    -0.000 A 
ATOM     31  CE1 PHE A  10      23.991  11.732   8.909  0.00  0.00    -0.000 A 
ATOM     32  CD1 PHE A  10      24.645  11.086   9.965  0.00  0.00    -0.004 A 
ENDBRANCH  26  27
ENDBRANCH  23  26
ENDBRANCH  20  23
ENDBRANCH  18  19
BRANCH  18  33
ATOM     33  CB  GLN A   9      20.135   6.924  11.491  0.00  0.00    +0.039 C 
BRANCH  33  34
ATOM     34  CG  GLN A   9      19.983   8.287  10.834  0.00  0.00    +0.087 C 
BRANCH  34  35
ATOM     35  CD  GLN A   9      18.731   8.351   9.982  0.00  0.00    +0.219 C 
ATOM     36  NE2 GLN A   9      17.572   8.336  10.637  0.00  0.00    -0.329 N 
ATOM     37 HE21 GLN A   9      17.563   8.312  11.677  0.00  0.00    +0.145 HD
ATOM     38 HE22 GLN A   9      16.676   8.348  10.109  0.00  0.00    +0.145 HD
ATOM     39  OE1 GLN A   9      18.798   8.379   8.744  0.00  0.00    -0.275 OA
ENDBRANCH  34  35
ENDBRANCH  33  34
ENDBRANCH  18  33
ENDBRANCH  16  18
ENDBRANCH  13  14
BRANCH  13  40
ATOM     40  CB  MET A   8      19.610   7.644  16.909  0.00  0.00    +0.041 C 
BRANCH  40  41
ATOM     41  CG  MET A   8      19.743   6.209  17.377  0.00  0.00    +0.060 C 
BRANCH  41  42
ATOM     42  SD  MET A   8      18.188   5.526  17.977  0.00  0.00    -0.139 S 
ATOM     43  CE  MET A   8      18.694   3.811  18.150  0.00  0.00    +0.069 C 
ENDBRANCH  41  42
ENDBRANCH  40  41
ENDBRANCH  13  40
ENDBRANCH  10  13
ENDBRANCH   7   9
ENDBRANCH   1   2
BRANCH   1  46
ATOM     44  C   VAL A   5      18.408  14.248  12.375  0.00  0.00    +0.241 C 
ATOM     45  O   VAL A   5      18.727  14.775  13.453  0.00  0.00    -0.273 OA
ATOM     46  N   ASN A   6      18.203  12.956  12.224  0.00  0.00    -0.297 N 
ATOM     47  H   ASN A   6      18.063  12.568  11.269  0.00  0.00    +0.150 HD
BRANCH  44  48
ATOM     48  CA  VAL A   5      18.151  15.060  11.138  0.00  0.00    +0.149 C 
BRANCH  48  50
ATOM     49  C   PHE A   4      15.735  15.148  11.068  0.00  0.00    +0.241 C 
ATOM     50  N   VAL A   5      16.879  15.706  11.444  0.00  0.00    -0.297 N 
ATOM     51  H   VAL A   5      16.869  16.609  11.960  0.00  0.00    +0.150 HD
ATOM     52  O   PHE A   4      15.690  14.122  10.381  0.00  0.00    -0.273 OA
BRANCH  49  53
ATOM     53  CA  PHE A   4      14.475  15.896  11.454  0.00  0.00    +0.153 C 
BRANCH  53  56
ATOM     54  C   ILE A   3      12.837  17.150  10.175  0.00  0.00    +0.241 C 
ATOM     55  O   ILE A   3      12.609  17.901  11.123  0.00  0.00    -0.273 OA
ATOM     56  N   PHE A   4      13.725  16.176  10.229  0.00  0.00    -0.297 N 
ATOM     57  H   PHE A   4      13.896  15.595   9.383  0.00  0.00    +0.150 HD
BRANCH  54  58
ATOM     58  CA  ILE A   3      12.063  17.275   8.879  0.00  0.00    +0.149 C 
BRANCH  58  60
ATOM     59  C   SER A   2      10.000  16.054   8.485  0.00  0.00    +0.243 C 
ATOM     60  N   ILE A   3      10.687  16.913   9.210  0.00  0.00    -0.297 N 
ATOM     61  H   ILE A   3      10.237  17.346  10.042  0.00  0.00    +0.150 HD
ATOM     62  O   SER A   2      10.437  15.551   7.443  0.00  0.00    -0.273 OA
BRANCH  59  63
ATOM     63  CA  SER A   2       8.599  15.753   9.018  0.00  0.00    +0.178 C 
BRANCH  63  66
ATOM     64  C   VAL A   1       6.988  16.547   7.431  0.00  0.00    +0.238 C 
ATOM     65  O   VAL A   1       6.968  17.654   7.960  0.00  0.00    -0.274 OA
ATOM     66  N   SER A   2       7.695  15.532   7.908  0.00  0.00    -0.295 N 
ATOM     67  H   SER A   2       7.601  14.585   7.489  0.00  0.00    +0.150 HD
BRANCH  64  68
ATOM     68  CA  VAL A   1       6.150  16.263   6.209  0.00  0.00    +0.145 C 
BRANCH  68  69
ATOM     69  CB  VAL A   1       6.663  17.135   5.030  0.00  0.00    +0.025 C 
ATOM     70  CG2 VAL A   1       8.167  16.874   4.779  0.00  0.00    +0.002 C 
ATOM     71  CG1 VAL A   1       5.819  16.861   3.777  0.00  0.00    +0.002 C 
ENDBRANCH  68  69
BRANCH  68  72
ATOM     72  N   VAL A   1       4.774  16.555   6.569  0.00  0.00    -0.238 NA
ATOM     73  H   VAL A   1       4.478  17.538   6.737  0.00  0.00    +0.142 HD
ENDBRANCH  68  72
ENDBRANCH  64  68
ENDBRANCH  63  66
BRANCH  63  74
ATOM     74  CB  SER A   2       8.584  14.587  10.027  0.00  0.00    +0.166 C 
BRANCH  74  75
ATOM     75  OG  SER A   2       9.127  13.416   9.455  0.00  0.00    -0.380 OA
ATOM     76  H   SER A   2      10.063  13.587   9.181  0.00  0.00    +0.211 HD
ENDBRANCH  74  75
ENDBRANCH  63  74
ENDBRANCH  59  63
ENDBRANCH  58  60
BRANCH  58  77
ATOM     77  CB  ILE A   3      12.174  18.739   8.342  0.00  0.00    +0.027 C 
ATOM     78  CG2 ILE A   3      13.677  19.152   8.218  0.00  0.00    +0.002 C 
BRANCH  77  79
ATOM     79  CG1 ILE A   3      11.433  18.872   7.002  0.00  0.00    +0.002 C 
ATOM     80  CD1 ILE A   3      11.185  20.307   6.551  0.00  0.00    +0.000 C 
ENDBRANCH  77  79
ENDBRANCH  58  77
ENDBRANCH  54  58
ENDBRANCH  53  56
BRANCH  53  81
ATOM     81  CB  PHE A   4      13.608  15.108  12.476  0.00  0.00    +0.055 C 
BRANCH  81  82
ATOM     82  CG  PHE A   4      14.313  14.791  13.768  0.00  0.00    -0.020 A 
ATOM     83  CD2 PHE A   4      14.693  15.805  14.651  0.00  0.00    -0.004 A 
ATOM     84  CE2 PHE A   4      15.368  15.505  15.860  0.00  0.00    -0.000 A 
ATOM     85  CZ  PHE A   4      15.648  14.169  16.181  0.00  0.00    -0.000 A 
ATOM     86  CE1 PHE A   4      15.256  13.159  15.310  0.00  0.00    -0.000 A 
ATOM     87  CD1 PHE A   4      14.592  13.465  14.114  0.00  0.00    -0.004 A 
ENDBRANCH  81  82
ENDBRANCH  53  81
ENDBRANCH  49  53
ENDBRANCH  48  50
BRANCH  48  88
ATOM     88  CB  VAL A   5      19.300  16.050  10.837  0.00  0.00    +0.027 C 
ATOM     89  CG2 VAL A   5      20.607  15.297  10.605  0.00  0.00    +0.002 C 
ATOM     90  CG1 VAL A   5      18.977  16.915   9.611  0.00  0.00    +0.002 C 
ENDBRANCH  48  88
ENDBRANCH  44  48
ENDBRANCH   1  46
BRANCH   1  91
ATOM     91  CB  ASN A   6      17.354  10.836  12.975  0.00  0.00    +0.114 C 
BRANCH  91  92
ATOM     92  CG  ASN A   6      17.440   9.754  14.011  0.00  0.00    +0.222 C 
ATOM     93  OD1 ASN A   6      17.445  10.035  15.216  0.00  0.00    -0.275 OA
ATOM     94  ND2 ASN A   6      17.529   8.498  13.555  0.00  0.00    -0.329 N 
ATOM     95 HD21 ASN A   6      17.607   7.706  14.225  0.00  0.00    +0.145 HD
ATOM     96 HD22 ASN A   6      17.520   8.315  12.531  0.00  0.00    +0.145 HD
ENDBRANCH  91  92
ENDBRANCH   1  91
TORSDOF 37
REMARK  Name = ../refined-set-2016/3iod/3iod_pocket.pdb
REMARK  251 active torsions:
REMARK  status: ('A' for Active; 'I' for Inactive)
REMARK    1  A    between atoms: _1  and  _3
REMARK    2  A    between atoms: _3  and  _4
REMARK    3  A    between atoms: _3  and  _6
REMARK    4  A    between atoms: _6  and  _7
REMARK    5  A    between atoms: _10  and  _12
REMARK    6  A    between atoms: _12  and  _13
REMARK    7  A    between atoms: _12  and  _15
REMARK    8  A    between atoms: _19  and  _20
REMARK    9  A    between atoms: _25  and  _27
REMARK   10  A    between atoms: _27  and  _28
REMARK   11  A    between atoms: _27  and  _30
REMARK   12  A    between atoms: _30  and  _31
REMARK   13  A    between atoms: _34  and  _36
REMARK   14  A    between atoms: _36  and  _37
REMARK   15  A    between atoms: _36  and  _39
REMARK   16  A    between atoms: _39  and  _40
REMARK   17  A    between atoms: _40  and  _41
REMARK   18  A    between atoms: _43  and  _45
REMARK   19  A    between atoms: _45  and  _46
REMARK   20  A    between atoms: _48  and  _50
REMARK   21  A    between atoms: _50  and  _51
REMARK   22  A    between atoms: _54  and  _56
REMARK   23  A    between atoms: _56  and  _57
REMARK   24  A    between atoms: _56  and  _59
REMARK   25  A    between atoms: _59  and  _60
REMARK   26  A    between atoms: _63  and  _65
REMARK   27  A    between atoms: _65  and  _66
REMARK   28  A    between atoms: _65  and  _68
REMARK   29  A    between atoms: _68  and  _69
REMARK   30  A    between atoms: _74  and  _76
REMARK   31  A    between atoms: _76  and  _77
REMARK   32  A    between atoms: _76  and  _79
REMARK   33  A    between atoms: _79  and  _80
REMARK   34  A    between atoms: _80  and  _81
REMARK   35  A    between atoms: _84  and  _86
REMARK   36  A    between atoms: _86  and  _87
REMARK   37  A    between atoms: _89  and  _91
REMARK   38  A    between atoms: _91  and  _92
REMARK   39  A    between atoms: _91  and  _94
REMARK   40  A    between atoms: _94  and  _95
REMARK   41  A    between atoms: _100  and  _102
REMARK   42  A    between atoms: _102  and  _103
REMARK   43  A    between atoms: _102  and  _105
REMARK   44  A    between atoms: _105  and  _106
REMARK   45  A    between atoms: _109  and  _111
REMARK   46  A    between atoms: _111  and  _112
REMARK   47  A    between atoms: _115  and  _117
REMARK   48  A    between atoms: _117  and  _118
REMARK   49  A    between atoms: _117  and  _120
REMARK   50  A    between atoms: _120  and  _121
REMARK   51  A    between atoms: _124  and  _126
REMARK   52  A    between atoms: _126  and  _127
REMARK   53  A    between atoms: _126  and  _129
REMARK   54  A    between atoms: _132  and  _134
REMARK   55  A    between atoms: _134  and  _135
REMARK   56  A    between atoms: _134  and  _137
REMARK   57  A    between atoms: _140  and  _142
REMARK   58  A    between atoms: _142  and  _143
REMARK   59  A    between atoms: _142  and  _145
REMARK   60  A    between atoms: _145  and  _146
REMARK   61  A    between atoms: _148  and  _150
REMARK   62  A    between atoms: _150  and  _151
REMARK   63  A    between atoms: _150  and  _153
REMARK   64  A    between atoms: _153  and  _154
REMARK   65  A    between atoms: _157  and  _159
REMARK   66  A    between atoms: _159  and  _160
REMARK   67  A    between atoms: _159  and  _162
REMARK   68  A    between atoms: _162  and  _163
REMARK   69  A    between atoms: _169  and  _171
REMARK   70  A    between atoms: _171  and  _172
REMARK   71  A    between atoms: _171  and  _174
REMARK   72  A    between atoms: _177  and  _179
REMARK   73  A    between atoms: _179  and  _180
REMARK   74  A    between atoms: _179  and  _182
REMARK   75  A    between atoms: _182  and  _183
REMARK   76  A    between atoms: _189  and  _190
REMARK   77  A    between atoms: _195  and  _197
REMARK   78  A    between atoms: _197  and  _198
REMARK   79  A    between atoms: _197  and  _200
REMARK   80  A    between atoms: _200  and  _201
REMARK   81  A    between atoms: _201  and  _202
REMARK   82  A    between atoms: _204  and  _206
REMARK   83  A    between atoms: _206  and  _207
REMARK   84  A    between atoms: _206  and  _209
REMARK   85  A    between atoms: _209  and  _210
REMARK   86  A    between atoms: _210  and  _211
REMARK   87  A    between atoms: _216  and  _218
REMARK   88  A    between atoms: _218  and  _219
REMARK   89  A    between atoms: _218  and  _221
REMARK   90  A    between atoms: _221  and  _222
REMARK   91  A    between atoms: _228  and  _230
REMARK   92  A    between atoms: _230  and  _231
REMARK   93  A    between atoms: _230  and  _233
REMARK   94  A    between atoms: _233  and  _234
REMARK   95  A    between atoms: _239  and  _240
REMARK   96  A    between atoms: _242  and  _244
REMARK   97  A    between atoms: _244  and  _245
REMARK   98  A    between atoms: _244  and  _247
REMARK   99  A    between atoms: _247  and  _248
REMARK  100  A    between atoms: _255  and  _256
REMARK  101  A    between atoms: _261  and  _263
REMARK  102  A    between atoms: _263  and  _264
REMARK  103  A    between atoms: _263  and  _266
REMARK  104  A    between atoms: _266  and  _267
REMARK  105  A    between atoms: _267  and  _268
REMARK  106  A    between atoms: _270  and  _272
REMARK  107  A    between atoms: _272  and  _273
REMARK  108  A    between atoms: _272  and  _275
REMARK  109  A    between atoms: _275  and  _276
REMARK  110  A    between atoms: _281  and  _282
REMARK  111  A    between atoms: _284  and  _286
REMARK  112  A    between atoms: _286  and  _287
REMARK  113  A    between atoms: _286  and  _289
REMARK  114  A    between atoms: _289  and  _290
REMARK  115  A    between atoms: _295  and  _297
REMARK  116  A    between atoms: _297  and  _298
REMARK  117  A    between atoms: _297  and  _300
REMARK  118  A    between atoms: _300  and  _301
REMARK  119  A    between atoms: _307  and  _309
REMARK  120  A    between atoms: _309  and  _310
REMARK  121  A    between atoms: _312  and  _314
REMARK  122  A    between atoms: _314  and  _315
REMARK  123  A    between atoms: _314  and  _317
REMARK  124  A    between atoms: _320  and  _322
REMARK  125  A    between atoms: _322  and  _323
REMARK  126  A    between atoms: _322  and  _325
REMARK  127  A    between atoms: _325  and  _326
REMARK  128  A    between atoms: _329  and  _331
REMARK  129  A    between atoms: _331  and  _332
REMARK  130  A    between atoms: _331  and  _334
REMARK  131  A    between atoms: _334  and  _335
REMARK  132  A    between atoms: _338  and  _340
REMARK  133  A    between atoms: _340  and  _341
REMARK  134  A    between atoms: _340  and  _343
REMARK  135  A    between atoms: _346  and  _348
REMARK  136  A    between atoms: _348  and  _349
REMARK  137  A    between atoms: _348  and  _351
REMARK  138  A    between atoms: _354  and  _356
REMARK  139  A    between atoms: _356  and  _357
REMARK  140  A    between atoms: _356  and  _359
REMARK  141  A    between atoms: _359  and  _360
REMARK  142  A    between atoms: _363  and  _365
REMARK  143  A    between atoms: _365  and  _366
REMARK  144  A    between atoms: _365  and  _368
REMARK  145  A    between atoms: _368  and  _369
REMARK  146  A    between atoms: _375  and  _377
REMARK  147  A    between atoms: _377  and  _378
REMARK  148  A    between atoms: _377  and  _380
REMARK  149  A    between atoms: _380  and  _381
REMARK  150  A    between atoms: _387  and  _389
REMARK  151  A    between atoms: _389  and  _390
REMARK  152  A    between atoms: _392  and  _394
REMARK  153  A    between atoms: _394  and  _395
REMARK  154  A    between atoms: _394  and  _397
REMARK  155  A    between atoms: _397  and  _398
REMARK  156  A    between atoms: _398  and  _399
REMARK  157  A    between atoms: _402  and  _404
REMARK  158  A    between atoms: _404  and  _405
REMARK  159  A    between atoms: _404  and  _407
REMARK  160  A    between atoms: _407  and  _408
REMARK  161  A    between atoms: _408  and  _409
REMARK  162  A    between atoms: _409  and  _410
REMARK  163  A    between atoms: _410  and  _411
REMARK  164  A    between atoms: _415  and  _417
REMARK  165  A    between atoms: _417  and  _418
REMARK  166  A    between atoms: _417  and  _420
REMARK  167  A    between atoms: _420  and  _421
REMARK  168  A    between atoms: _424  and  _426
REMARK  169  A    between atoms: _426  and  _427
REMARK  170  A    between atoms: _426  and  _429
REMARK  171  A    between atoms: _429  and  _430
REMARK  172  A    between atoms: _435  and  _436
REMARK  173  A    between atoms: _438  and  _440
REMARK  174  A    between atoms: _440  and  _441
REMARK  175  A    between atoms: _440  and  _443
REMARK  176  A    between atoms: _443  and  _444
REMARK  177  A    between atoms: _444  and  _445
REMARK  178  A    between atoms: _450  and  _452
REMARK  179  A    between atoms: _452  and  _453
REMARK  180  A    between atoms: _452  and  _455
REMARK  181  A    between atoms: _455  and  _456
REMARK  182  A    between atoms: _459  and  _461
REMARK  183  A    between atoms: _461  and  _462
REMARK  184  A    between atoms: _461  and  _464
REMARK  185  A    between atoms: _464  and  _465
REMARK  186  A    between atoms: _468  and  _470
REMARK  187  A    between atoms: _470  and  _471
REMARK  188  A    between atoms: _470  and  _473
REMARK  189  A    between atoms: _476  and  _478
REMARK  190  A    between atoms: _478  and  _479
REMARK  191  A    between atoms: _478  and  _481
REMARK  192  A    between atoms: _485  and  _486
REMARK  193  A    between atoms: _491  and  _493
REMARK  194  A    between atoms: _493  and  _494
REMARK  195  A    between atoms: _493  and  _496
REMARK  196  A    between atoms: _496  and  _497
REMARK  197  A    between atoms: _500  and  _502
REMARK  198  A    between atoms: _502  and  _503
REMARK  199  A    between atoms: _502  and  _505
REMARK  200  A    between atoms: _508  and  _510
REMARK  201  A    between atoms: _510  and  _511
REMARK  202  A    between atoms: _510  and  _513
REMARK  203  A    between atoms: _513  and  _514
REMARK  204  A    between atoms: _514  and  _515
REMARK  205  A    between atoms: _515  and  _516
REMARK  206  A    between atoms: _525  and  _527
REMARK  207  A    between atoms: _527  and  _528
REMARK  208  A    between atoms: _527  and  _530
REMARK  209  A    between atoms: _530  and  _531
REMARK  210  A    between atoms: _531  and  _532
REMARK  211  A    between atoms: _535  and  _537
REMARK  212  A    between atoms: _537  and  _538
REMARK  213  A    between atoms: _537  and  _540
REMARK  214  A    between atoms: _540  and  _541
REMARK  215  A    between atoms: _544  and  _546
REMARK  216  A    between atoms: _546  and  _547
REMARK  217  A    between atoms: _550  and  _552
REMARK  218  A    between atoms: _552  and  _553
REMARK  219  A    between atoms: _552  and  _555
REMARK  220  A    between atoms: _555  and  _556
REMARK  221  A    between atoms: _556  and  _557
REMARK  222  A    between atoms: _559  and  _561
REMARK  223  A    between atoms: _561  and  _562
REMARK  224  A    between atoms: _561  and  _564
REMARK  225  A    between atoms: _564  and  _565
REMARK  226  A    between atoms: _567  and  _569
REMARK  227  A    between atoms: _569  and  _570
REMARK  228  A    between atoms: _569  and  _572
REMARK  229  A    between atoms: _572  and  _573
REMARK  230  A    between atoms: _575  and  _577
REMARK  231  A    between atoms: _577  and  _578
REMARK  232  A    between atoms: _577  and  _580
REMARK  233  A    between atoms: _580  and  _581
REMARK  234  A    between atoms: _581  and  _582
REMARK  235  A    between atoms: _582  and  _583
REMARK  236  A    between atoms: _592  and  _594
REMARK  237  A    between atoms: _594  and  _595
REMARK  238  A    between atoms: _594  and  _597
REMARK  239  A    between atoms: _597  and  _598
REMARK  240  A    between atoms: _603  and  _605
REMARK  241  A    between atoms: _605  and  _606
REMARK  242  A    between atoms: _605  and  _608
REMARK  243  A    between atoms: _608  and  _609
REMARK  244  A    between atoms: _612  and  _614
REMARK  245  A    between atoms: _614  and  _615
REMARK  246  A    between atoms: _614  and  _617
REMARK  247  A    between atoms: _617  and  _618
REMARK  248  A    between atoms: _621  and  _623
REMARK  249  A    between atoms: _623  and  _624
REMARK  250  A    between atoms: _623  and  _626
REMARK  251  A    between atoms: _626  and  _627
REMARK                            x       y       z     vdW  Elec       q    Type
REMARK                         _______ _______ _______ _____ _____    ______ ____
ROOT
ATOM      1  CG  TYR A   1      22.627  15.129   6.564  0.00  0.00    -0.020 A 
ATOM      2  CD2 TYR A   1      21.422  15.794   6.336  0.00  0.00    -0.001 A 
ATOM      3  CE2 TYR A   1      20.441  15.246   5.513  0.00  0.00    +0.036 A 
ATOM      4  CZ  TYR A   1      20.673  14.021   4.901  0.00  0.00    +0.134 A 
ATOM      5  CE1 TYR A   1      21.865  13.345   5.108  0.00  0.00    +0.036 A 
ATOM      6  CD1 TYR A   1      22.837  13.901   5.933  0.00  0.00    -0.001 A 
ENDROOT
BRANCH   4   7
ATOM      7  OH  TYR A   1      19.715  13.459   4.083  0.00  0.00    -0.506 OA
ATOM      8  HH  TYR A   1      20.046  12.593   3.735  0.00  0.00    +0.292 HD
ENDBRANCH   4   7
BRANCH   1   9
ATOM      9  CB  TYR A   1      23.697  15.735   7.436  0.00  0.00    +0.051 C 
BRANCH   9  10
ATOM     10  CA  TYR A   1      24.708  16.539   6.610  0.00  0.00    +0.137 C 
BRANCH  10  11
ATOM     11  N   TYR A   1      25.991  16.661   7.304  0.00  0.00    -0.239 NA
ATOM     12  H   TYR A   1      26.060  16.383   8.304  0.00  0.00    +0.142 HD
ENDBRANCH  10  11
BRANCH  10  13
ATOM     13  C   TYR A   1      24.119  17.898   6.201  0.00  0.00    +0.224 C 
ATOM     14  O   TYR A   1      24.063  18.814   7.031  0.00  0.00    -0.287 OA
ENDBRANCH  10  13
ENDBRANCH   9  10
ENDBRANCH   1   9
TORSDOF 5
REMARK  Name = ../refined-set-2016/3iod/3iod_pocket.pdb
REMARK  251 active torsions:
REMARK  status: ('A' for Active; 'I' for Inactive)
REMARK    1  A    between atoms: _1  and  _3
REMARK    2  A    between atoms: _3  and  _4
REMARK    3  A    between atoms: _3  and  _6
REMARK    4  A    between atoms: _6  and  _7
REMARK    5  A    between atoms: _10  and  _12
REMARK    6  A    between atoms: _12  and  _13
REMARK    7  A    between atoms: _12  and  _15
REMARK    8  A    between atoms: _19  and  _20
REMARK    9  A    between atoms: _25  and  _27
REMARK   10  A    between atoms: _27  and  _28
REMARK   11  A    between atoms: _27  and  _30
REMARK   12  A    between atoms: _30  and  _31
REMARK   13  A    between atoms: _34  and  _36
REMARK   14  A    between atoms: _36  and  _37
REMARK   15  A    between atoms: _36  and  _39
REMARK   16  A    between atoms: _39  and  _40
REMARK   17  A    between atoms: _40  and  _41
REMARK   18  A    between atoms: _43  and  _45
REMARK   19  A    between atoms: _45  and  _46
REMARK   20  A    between atoms: _48  and  _50
REMARK   21  A    between atoms: _50  and  _51
REMARK   22  A    between atoms: _54  and  _56
REMARK   23  A    between atoms: _56  and  _57
REMARK   24  A    between atoms: _56  and  _59
REMARK   25  A    between atoms: _59  and  _60
REMARK   26  A    between atoms: _63  and  _65
REMARK   27  A    between atoms: _65  and  _66
REMARK   28  A    between atoms: _65  and  _68
REMARK   29  A    between atoms: _68  and  _69
REMARK   30  A    between atoms: _74  and  _76
REMARK   31  A    between atoms: _76  and  _77
REMARK   32  A    between atoms: _76  and  _79
REMARK   33  A    between atoms: _79  and  _80
REMARK   34  A    between atoms: _80  and  _81
REMARK   35  A    between atoms: _84  and  _86
REMARK   36  A    between atoms: _86  and  _87
REMARK   37  A    between atoms: _89  and  _91
REMARK   38  A    between atoms: _91  and  _92
REMARK   39  A    between atoms: _91  and  _94
REMARK   40  A    between atoms: _94  and  _95
REMARK   41  A    between atoms: _100  and  _102
REMARK   42  A    between atoms: _102  and  _103
REMARK   43  A    between atoms: _102  and  _105
REMARK   44  A    between atoms: _105  and  _106
REMARK   45  A    between atoms: _109  and  _111
REMARK   46  A    between atoms: _111  and  _112
REMARK   47  A    between atoms: _115  and  _117
REMARK   48  A    between atoms: _117  and  _118
REMARK   49  A    between atoms: _117  and  _120
REMARK   50  A    between atoms: _120  and  _121
REMARK   51  A    between atoms: _124  and  _126
REMARK   52  A    between atoms: _126  and  _127
REMARK   53  A    between atoms: _126  and  _129
REMARK   54  A    between atoms: _132  and  _134
REMARK   55  A    between atoms: _134  and  _135
REMARK   56  A    between atoms: _134  and  _137
REMARK   57  A    between atoms: _140  and  _142
REMARK   58  A    between atoms: _142  and  _143
REMARK   59  A    between atoms: _142  and  _145
REMARK   60  A    between atoms: _145  and  _146
REMARK   61  A    between atoms: _148  and  _150
REMARK   62  A    between atoms: _150  and  _151
REMARK   63  A    between atoms: _150  and  _153
REMARK   64  A    between atoms: _153  and  _154
REMARK   65  A    between atoms: _157  and  _159
REMARK   66  A    between atoms: _159  and  _160
REMARK   67  A    between atoms: _159  and  _162
REMARK   68  A    between atoms: _162  and  _163
REMARK   69  A    between atoms: _169  and  _171
REMARK   70  A    between atoms: _171  and  _172
REMARK   71  A    between atoms: _171  and  _174
REMARK   72  A    between atoms: _177  and  _179
REMARK   73  A    between atoms: _179  and  _180
REMARK   74  A    between atoms: _179  and  _182
REMARK   75  A    between atoms: _182  and  _183
REMARK   76  A    between atoms: _189  and  _190
REMARK   77  A    between atoms: _195  and  _197
REMARK   78  A    between atoms: _197  and  _198
REMARK   79  A    between atoms: _197  and  _200
REMARK   80  A    between atoms: _200  and  _201
REMARK   81  A    between atoms: _201  and  _202
REMARK   82  A    between atoms: _204  and  _206
REMARK   83  A    between atoms: _206  and  _207
REMARK   84  A    between atoms: _206  and  _209
REMARK   85  A    between atoms: _209  and  _210
REMARK   86  A    between atoms: _210  and  _211
REMARK   87  A    between atoms: _216  and  _218
REMARK   88  A    between atoms: _218  and  _219
REMARK   89  A    between atoms: _218  and  _221
REMARK   90  A    between atoms: _221  and  _222
REMARK   91  A    between atoms: _228  and  _230
REMARK   92  A    between atoms: _230  and  _231
REMARK   93  A    between atoms: _230  and  _233
REMARK   94  A    between atoms: _233  and  _234
REMARK   95  A    between atoms: _239  and  _240
REMARK   96  A    between atoms: _242  and  _244
REMARK   97  A    between atoms: _244  and  _245
REMARK   98  A    between atoms: _244  and  _247
REMARK   99  A    between atoms: _247  and  _248
REMARK  100  A    between atoms: _255  and  _256
REMARK  101  A    between atoms: _261  and  _263
REMARK  102  A    between atoms: _263  and  _264
REMARK  103  A    between atoms: _263  and  _266
REMARK  104  A    between atoms: _266  and  _267
REMARK  105  A    between atoms: _267  and  _268
REMARK  106  A    between atoms: _270  and  _272
REMARK  107  A    between atoms: _272  and  _273
REMARK  108  A    between atoms: _272  and  _275
REMARK  109  A    between atoms: _275  and  _276
REMARK  110  A    between atoms: _281  and  _282
REMARK  111  A    between atoms: _284  and  _286
REMARK  112  A    between atoms: _286  and  _287
REMARK  113  A    between atoms: _286  and  _289
REMARK  114  A    between atoms: _289  and  _290
REMARK  115  A    between atoms: _295  and  _297
REMARK  116  A    between atoms: _297  and  _298
REMARK  117  A    between atoms: _297  and  _300
REMARK  118  A    between atoms: _300  and  _301
REMARK  119  A    between atoms: _307  and  _309
REMARK  120  A    between atoms: _309  and  _310
REMARK  121  A    between atoms: _312  and  _314
REMARK  122  A    between atoms: _314  and  _315
REMARK  123  A    between atoms: _314  and  _317
REMARK  124  A    between atoms: _320  and  _322
REMARK  125  A    between atoms: _322  and  _323
REMARK  126  A    between atoms: _322  and  _325
REMARK  127  A    between atoms: _325  and  _326
REMARK  128  A    between atoms: _329  and  _331
REMARK  129  A    between atoms: _331  and  _332
REMARK  130  A    between atoms: _331  and  _334
REMARK  131  A    between atoms: _334  and  _335
REMARK  132  A    between atoms: _338  and  _340
REMARK  133  A    between atoms: _340  and  _341
REMARK  134  A    between atoms: _340  and  _343
REMARK  135  A    between atoms: _346  and  _348
REMARK  136  A    between atoms: _348  and  _349
REMARK  137  A    between atoms: _348  and  _351
REMARK  138  A    between atoms: _354  and  _356
REMARK  139  A    between atoms: _356  and  _357
REMARK  140  A    between atoms: _356  and  _359
REMARK  141  A    between atoms: _359  and  _360
REMARK  142  A    between atoms: _363  and  _365
REMARK  143  A    between atoms: _365  and  _366
REMARK  144  A    between atoms: _365  and  _368
REMARK  145  A    between atoms: _368  and  _369
REMARK  146  A    between atoms: _375  and  _377
REMARK  147  A    between atoms: _377  and  _378
REMARK  148  A    between atoms: _377  and  _380
REMARK  149  A    between atoms: _380  and  _381
REMARK  150  A    between atoms: _387  and  _389
REMARK  151  A    between atoms: _389  and  _390
REMARK  152  A    between atoms: _392  and  _394
REMARK  153  A    between atoms: _394  and  _395
REMARK  154  A    between atoms: _394  and  _397
REMARK  155  A    between atoms: _397  and  _398
REMARK  156  A    between atoms: _398  and  _399
REMARK  157  A    between atoms: _402  and  _404
REMARK  158  A    between atoms: _404  and  _405
REMARK  159  A    between atoms: _404  and  _407
REMARK  160  A    between atoms: _407  and  _408
REMARK  161  A    between atoms: _408  and  _409
REMARK  162  A    between atoms: _409  and  _410
REMARK  163  A    between atoms: _410  and  _411
REMARK  164  A    between atoms: _415  and  _417
REMARK  165  A    between atoms: _417  and  _418
REMARK  166  A    between atoms: _417  and  _420
REMARK  167  A    between atoms: _420  and  _421
REMARK  168  A    between atoms: _424  and  _426
REMARK  169  A    between atoms: _426  and  _427
REMARK  170  A    between atoms: _426  and  _429
REMARK  171  A    between atoms: _429  and  _430
REMARK  172  A    between atoms: _435  and  _436
REMARK  173  A    between atoms: _438  and  _440
REMARK  174  A    between atoms: _440  and  _441
REMARK  175  A    between atoms: _440  and  _443
REMARK  176  A    between atoms: _443  and  _444
REMARK  177  A    between atoms: _444  and  _445
REMARK  178  A    between atoms: _450  and  _452
REMARK  179  A    between atoms: _452  and  _453
REMARK  180  A    between atoms: _452  and  _455
REMARK  181  A    between atoms: _455  and  _456
REMARK  182  A    between atoms: _459  and  _461
REMARK  183  A    between atoms: _461  and  _462
REMARK  184  A    between atoms: _461  and  _464
REMARK  185  A    between atoms: _464  and  _465
REMARK  186  A    between atoms: _468  and  _470
REMARK  187  A    between atoms: _470  and  _471
REMARK  188  A    between atoms: _470  and  _473
REMARK  189  A    between atoms: _476  and  _478
REMARK  190  A    between atoms: _478  and  _479
REMARK  191  A    between atoms: _478  and  _481
REMARK  192  A    between atoms: _485  and  _486
REMARK  193  A    between atoms: _491  and  _493
REMARK  194  A    between atoms: _493  and  _494
REMARK  195  A    between atoms: _493  and  _496
REMARK  196  A    between atoms: _496  and  _497
REMARK  197  A    between atoms: _500  and  _502
REMARK  198  A    between atoms: _502  and  _503
REMARK  199  A    between atoms: _502  and  _505
REMARK  200  A    between atoms: _508  and  _510
REMARK  201  A    between atoms: _510  and  _511
REMARK  202  A    between atoms: _510  and  _513
REMARK  203  A    between atoms: _513  and  _514
REMARK  204  A    between atoms: _514  and  _515
REMARK  205  A    between atoms: _515  and  _516
REMARK  206  A    between atoms: _525  and  _527
REMARK  207  A    between atoms: _527  and  _528
REMARK  208  A    between atoms: _527  and  _530
REMARK  209  A    between atoms: _530  and  _531
REMARK  210  A    between atoms: _531  and  _532
REMARK  211  A    between atoms: _535  and  _537
REMARK  212  A    between atoms: _537  and  _538
REMARK  213  A    between atoms: _537  and  _540
REMARK  214  A    between atoms: _540  and  _541
REMARK  215  A    between atoms: _544  and  _546
REMARK  216  A    between atoms: _546  and  _547
REMARK  217  A    between atoms: _550  and  _552
REMARK  218  A    between atoms: _552  and  _553
REMARK  219  A    between atoms: _552  and  _555
REMARK  220  A    between atoms: _555  and  _556
REMARK  221  A    between atoms: _556  and  _557
REMARK  222  A    between atoms: _559  and  _561
REMARK  223  A    between atoms: _561  and  _562
REMARK  224  A    between atoms: _561  and  _564
REMARK  225  A    between atoms: _564  and  _565
REMARK  226  A    between atoms: _567  and  _569
REMARK  227  A    between atoms: _569  and  _570
REMARK  228  A    between atoms: _569  and  _572
REMARK  229  A    between atoms: _572  and  _573
REMARK  230  A    between atoms: _575  and  _577
REMARK  231  A    between atoms: _577  and  _578
REMARK  232  A    between atoms: _577  and  _580
REMARK  233  A    between atoms: _580  and  _581
REMARK  234  A    between atoms: _581  and  _582
REMARK  235  A    between atoms: _582  and  _583
REMARK  236  A    between atoms: _592  and  _594
REMARK  237  A    between atoms: _594  and  _595
REMARK  238  A    between atoms: _594  and  _597
REMARK  239  A    between atoms: _597  and  _598
REMARK  240  A    between atoms: _603  and  _605
REMARK  241  A    between atoms: _605  and  _606
REMARK  242  A    between atoms: _605  and  _608
REMARK  243  A    between atoms: _608  and  _609
REMARK  244  A    between atoms: _612  and  _614
REMARK  245  A    between atoms: _614  and  _615
REMARK  246  A    between atoms: _614  and  _617
REMARK  247  A    between atoms: _617  and  _618
REMARK  248  A    between atoms: _621  and  _623
REMARK  249  A    between atoms: _623  and  _624
REMARK  250  A    between atoms: _623  and  _626
REMARK  251  A    between atoms: _626  and  _627
REMARK                            x       y       z     vdW  Elec       q    Type
REMARK                         _______ _______ _______ _____ _____    ______ ____
ROOT
ATOM      1  CB  PHE A   1       6.239  17.357  12.032  0.00  0.00    +0.051 C 
ENDROOT
BRANCH   1   2
ATOM      2  CG  PHE A   1       6.602  16.855  13.419  0.00  0.00    -0.020 A 
ATOM      3  CD2 PHE A   1       6.560  17.702  14.532  0.00  0.00    -0.004 A 
ATOM      4  CE2 PHE A   1       6.913  17.245  15.803  0.00  0.00    -0.000 A 
ATOM      5  CZ  PHE A   1       7.259  15.888  15.982  0.00  0.00    -0.000 A 
ATOM      6  CE1 PHE A   1       7.281  15.033  14.853  0.00  0.00    -0.000 A 
ATOM      7  CD1 PHE A   1       6.961  15.518  13.596  0.00  0.00    -0.004 A 
ENDBRANCH   1   2
BRANCH   1   8
ATOM      8  CA  PHE A   1       6.740  18.774  11.731  0.00  0.00    +0.137 C 
BRANCH   8   9
ATOM      9  N   PHE A   1       6.404  19.110  10.353  0.00  0.00    -0.239 NA
ATOM     10  H   PHE A   1       6.668  18.454   9.591  0.00  0.00    +0.142 HD
ENDBRANCH   8   9
BRANCH   8  11
ATOM     11  C   PHE A   1       8.263  18.862  11.894  0.00  0.00    +0.224 C 
ATOM     12  O   PHE A   1       8.983  18.106  11.276  0.00  0.00    -0.287 OA
ENDBRANCH   8  11
ENDBRANCH   1   8
TORSDOF 4
REMARK  Name = ../refined-set-2016/3iod/3iod_pocket.pdb
REMARK  251 active torsions:
REMARK  status: ('A' for Active; 'I' for Inactive)
REMARK    1  A    between atoms: _1  and  _3
REMARK    2  A    between atoms: _3  and  _4
REMARK    3  A    between atoms: _3  and  _6
REMARK    4  A    between atoms: _6  and  _7
REMARK    5  A    between atoms: _10  and  _12
REMARK    6  A    between atoms: _12  and  _13
REMARK    7  A    between atoms: _12  and  _15
REMARK    8  A    between atoms: _19  and  _20
REMARK    9  A    between atoms: _25  and  _27
REMARK   10  A    between atoms: _27  and  _28
REMARK   11  A    between atoms: _27  and  _30
REMARK   12  A    between atoms: _30  and  _31
REMARK   13  A    between atoms: _34  and  _36
REMARK   14  A    between atoms: _36  and  _37
REMARK   15  A    between atoms: _36  and  _39
REMARK   16  A    between atoms: _39  and  _40
REMARK   17  A    between atoms: _40  and  _41
REMARK   18  A    between atoms: _43  and  _45
REMARK   19  A    between atoms: _45  and  _46
REMARK   20  A    between atoms: _48  and  _50
REMARK   21  A    between atoms: _50  and  _51
REMARK   22  A    between atoms: _54  and  _56
REMARK   23  A    between atoms: _56  and  _57
REMARK   24  A    between atoms: _56  and  _59
REMARK   25  A    between atoms: _59  and  _60
REMARK   26  A    between atoms: _63  and  _65
REMARK   27  A    between atoms: _65  and  _66
REMARK   28  A    between atoms: _65  and  _68
REMARK   29  A    between atoms: _68  and  _69
REMARK   30  A    between atoms: _74  and  _76
REMARK   31  A    between atoms: _76  and  _77
REMARK   32  A    between atoms: _76  and  _79
REMARK   33  A    between atoms: _79  and  _80
REMARK   34  A    between atoms: _80  and  _81
REMARK   35  A    between atoms: _84  and  _86
REMARK   36  A    between atoms: _86  and  _87
REMARK   37  A    between atoms: _89  and  _91
REMARK   38  A    between atoms: _91  and  _92
REMARK   39  A    between atoms: _91  and  _94
REMARK   40  A    between atoms: _94  and  _95
REMARK   41  A    between atoms: _100  and  _102
REMARK   42  A    between atoms: _102  and  _103
REMARK   43  A    between atoms: _102  and  _105
REMARK   44  A    between atoms: _105  and  _106
REMARK   45  A    between atoms: _109  and  _111
REMARK   46  A    between atoms: _111  and  _112
REMARK   47  A    between atoms: _115  and  _117
REMARK   48  A    between atoms: _117  and  _118
REMARK   49  A    between atoms: _117  and  _120
REMARK   50  A    between atoms: _120  and  _121
REMARK   51  A    between atoms: _124  and  _126
REMARK   52  A    between atoms: _126  and  _127
REMARK   53  A    between atoms: _126  and  _129
REMARK   54  A    between atoms: _132  and  _134
REMARK   55  A    between atoms: _134  and  _135
REMARK   56  A    between atoms: _134  and  _137
REMARK   57  A    between atoms: _140  and  _142
REMARK   58  A    between atoms: _142  and  _143
REMARK   59  A    between atoms: _142  and  _145
REMARK   60  A    between atoms: _145  and  _146
REMARK   61  A    between atoms: _148  and  _150
REMARK   62  A    between atoms: _150  and  _151
REMARK   63  A    between atoms: _150  and  _153
REMARK   64  A    between atoms: _153  and  _154
REMARK   65  A    between atoms: _157  and  _159
REMARK   66  A    between atoms: _159  and  _160
REMARK   67  A    between atoms: _159  and  _162
REMARK   68  A    between atoms: _162  and  _163
REMARK   69  A    between atoms: _169  and  _171
REMARK   70  A    between atoms: _171  and  _172
REMARK   71  A    between atoms: _171  and  _174
REMARK   72  A    between atoms: _177  and  _179
REMARK   73  A    between atoms: _179  and  _180
REMARK   74  A    between atoms: _179  and  _182
REMARK   75  A    between atoms: _182  and  _183
REMARK   76  A    between atoms: _189  and  _190
REMARK   77  A    between atoms: _195  and  _197
REMARK   78  A    between atoms: _197  and  _198
REMARK   79  A    between atoms: _197  and  _200
REMARK   80  A    between atoms: _200  and  _201
REMARK   81  A    between atoms: _201  and  _202
REMARK   82  A    between atoms: _204  and  _206
REMARK   83  A    between atoms: _206  and  _207
REMARK   84  A    between atoms: _206  and  _209
REMARK   85  A    between atoms: _209  and  _210
REMARK   86  A    between atoms: _210  and  _211
REMARK   87  A    between atoms: _216  and  _218
REMARK   88  A    between atoms: _218  and  _219
REMARK   89  A    between atoms: _218  and  _221
REMARK   90  A    between atoms: _221  and  _222
REMARK   91  A    between atoms: _228  and  _230
REMARK   92  A    between atoms: _230  and  _231
REMARK   93  A    between atoms: _230  and  _233
REMARK   94  A    between atoms: _233  and  _234
REMARK   95  A    between atoms: _239  and  _240
REMARK   96  A    between atoms: _242  and  _244
REMARK   97  A    between atoms: _244  and  _245
REMARK   98  A    between atoms: _244  and  _247
REMARK   99  A    between atoms: _247  and  _248
REMARK  100  A    between atoms: _255  and  _256
REMARK  101  A    between atoms: _261  and  _263
REMARK  102  A    between atoms: _263  and  _264
REMARK  103  A    between atoms: _263  and  _266
REMARK  104  A    between atoms: _266  and  _267
REMARK  105  A    between atoms: _267  and  _268
REMARK  106  A    between atoms: _270  and  _272
REMARK  107  A    between atoms: _272  and  _273
REMARK  108  A    between atoms: _272  and  _275
REMARK  109  A    between atoms: _275  and  _276
REMARK  110  A    between atoms: _281  and  _282
REMARK  111  A    between atoms: _284  and  _286
REMARK  112  A    between atoms: _286  and  _287
REMARK  113  A    between atoms: _286  and  _289
REMARK  114  A    between atoms: _289  and  _290
REMARK  115  A    between atoms: _295  and  _297
REMARK  116  A    between atoms: _297  and  _298
REMARK  117  A    between atoms: _297  and  _300
REMARK  118  A    between atoms: _300  and  _301
REMARK  119  A    between atoms: _307  and  _309
REMARK  120  A    between atoms: _309  and  _310
REMARK  121  A    between atoms: _312  and  _314
REMARK  122  A    between atoms: _314  and  _315
REMARK  123  A    between atoms: _314  and  _317
REMARK  124  A    between atoms: _320  and  _322
REMARK  125  A    between atoms: _322  and  _323
REMARK  126  A    between atoms: _322  and  _325
REMARK  127  A    between atoms: _325  and  _326
REMARK  128  A    between atoms: _329  and  _331
REMARK  129  A    between atoms: _331  and  _332
REMARK  130  A    between atoms: _331  and  _334
REMARK  131  A    between atoms: _334  and  _335
REMARK  132  A    between atoms: _338  and  _340
REMARK  133  A    between atoms: _340  and  _341
REMARK  134  A    between atoms: _340  and  _343
REMARK  135  A    between atoms: _346  and  _348
REMARK  136  A    between atoms: _348  and  _349
REMARK  137  A    between atoms: _348  and  _351
REMARK  138  A    between atoms: _354  and  _356
REMARK  139  A    between atoms: _356  and  _357
REMARK  140  A    between atoms: _356  and  _359
REMARK  141  A    between atoms: _359  and  _360
REMARK  142  A    between atoms: _363  and  _365
REMARK  143  A    between atoms: _365  and  _366
REMARK  144  A    between atoms: _365  and  _368
REMARK  145  A    between atoms: _368  and  _369
REMARK  146  A    between atoms: _375  and  _377
REMARK  147  A    between atoms: _377  and  _378
REMARK  148  A    between atoms: _377  and  _380
REMARK  149  A    between atoms: _380  and  _381
REMARK  150  A    between atoms: _387  and  _389
REMARK  151  A    between atoms: _389  and  _390
REMARK  152  A    between atoms: _392  and  _394
REMARK  153  A    between atoms: _394  and  _395
REMARK  154  A    between atoms: _394  and  _397
REMARK  155  A    between atoms: _397  and  _398
REMARK  156  A    between atoms: _398  and  _399
REMARK  157  A    between atoms: _402  and  _404
REMARK  158  A    between atoms: _404  and  _405
REMARK  159  A    between atoms: _404  and  _407
REMARK  160  A    between atoms: _407  and  _408
REMARK  161  A    between atoms: _408  and  _409
REMARK  162  A    between atoms: _409  and  _410
REMARK  163  A    between atoms: _410  and  _411
REMARK  164  A    between atoms: _415  and  _417
REMARK  165  A    between atoms: _417  and  _418
REMARK  166  A    between atoms: _417  and  _420
REMARK  167  A    between atoms: _420  and  _421
REMARK  168  A    between atoms: _424  and  _426
REMARK  169  A    between atoms: _426  and  _427
REMARK  170  A    between atoms: _426  and  _429
REMARK  171  A    between atoms: _429  and  _430
REMARK  172  A    between atoms: _435  and  _436
REMARK  173  A    between atoms: _438  and  _440
REMARK  174  A    between atoms: _440  and  _441
REMARK  175  A    between atoms: _440  and  _443
REMARK  176  A    between atoms: _443  and  _444
REMARK  177  A    between atoms: _444  and  _445
REMARK  178  A    between atoms: _450  and  _452
REMARK  179  A    between atoms: _452  and  _453
REMARK  180  A    between atoms: _452  and  _455
REMARK  181  A    between atoms: _455  and  _456
REMARK  182  A    between atoms: _459  and  _461
REMARK  183  A    between atoms: _461  and  _462
REMARK  184  A    between atoms: _461  and  _464
REMARK  185  A    between atoms: _464  and  _465
REMARK  186  A    between atoms: _468  and  _470
REMARK  187  A    between atoms: _470  and  _471
REMARK  188  A    between atoms: _470  and  _473
REMARK  189  A    between atoms: _476  and  _478
REMARK  190  A    between atoms: _478  and  _479
REMARK  191  A    between atoms: _478  and  _481
REMARK  192  A    between atoms: _485  and  _486
REMARK  193  A    between atoms: _491  and  _493
REMARK  194  A    between atoms: _493  and  _494
REMARK  195  A    between atoms: _493  and  _496
REMARK  196  A    between atoms: _496  and  _497
REMARK  197  A    between atoms: _500  and  _502
REMARK  198  A    between atoms: _502  and  _503
REMARK  199  A    between atoms: _502  and  _505
REMARK  200  A    between atoms: _508  and  _510
REMARK  201  A    between atoms: _510  and  _511
REMARK  202  A    between atoms: _510  and  _513
REMARK  203  A    between atoms: _513  and  _514
REMARK  204  A    between atoms: _514  and  _515
REMARK  205  A    between atoms: _515  and  _516
REMARK  206  A    between atoms: _525  and  _527
REMARK  207  A    between atoms: _527  and  _528
REMARK  208  A    between atoms: _527  and  _530
REMARK  209  A    between atoms: _530  and  _531
REMARK  210  A    between atoms: _531  and  _532
REMARK  211  A    between atoms: _535  and  _537
REMARK  212  A    between atoms: _537  and  _538
REMARK  213  A    between atoms: _537  and  _540
REMARK  214  A    between atoms: _540  and  _541
REMARK  215  A    between atoms: _544  and  _546
REMARK  216  A    between atoms: _546  and  _547
REMARK  217  A    between atoms: _550  and  _552
REMARK  218  A    between atoms: _552  and  _553
REMARK  219  A    between atoms: _552  and  _555
REMARK  220  A    between atoms: _555  and  _556
REMARK  221  A    between atoms: _556  and  _557
REMARK  222  A    between atoms: _559  and  _561
REMARK  223  A    between atoms: _561  and  _562
REMARK  224  A    between atoms: _561  and  _564
REMARK  225  A    between atoms: _564  and  _565
REMARK  226  A    between atoms: _567  and  _569
REMARK  227  A    between atoms: _569  and  _570
REMARK  228  A    between atoms: _569  and  _572
REMARK  229  A    between atoms: _572  and  _573
REMARK  230  A    between atoms: _575  and  _577
REMARK  231  A    between atoms: _577  and  _578
REMARK  232  A    between atoms: _577  and  _580
REMARK  233  A    between atoms: _580  and  _581
REMARK  234  A    between atoms: _581  and  _582
REMARK  235  A    between atoms: _582  and  _583
REMARK  236  A    between atoms: _592  and  _594
REMARK  237  A    between atoms: _594  and  _595
REMARK  238  A    between atoms: _594  and  _597
REMARK  239  A    between atoms: _597  and  _598
REMARK  240  A    between atoms: _603  and  _605
REMARK  241  A    between atoms: _605  and  _606
REMARK  242  A    between atoms: _605  and  _608
REMARK  243  A    between atoms: _608  and  _609
REMARK  244  A    between atoms: _612  and  _614
REMARK  245  A    between atoms: _614  and  _615
REMARK  246  A    between atoms: _614  and  _617
REMARK  247  A    between atoms: _617  and  _618
REMARK  248  A    between atoms: _621  and  _623
REMARK  249  A    between atoms: _623  and  _624
REMARK  250  A    between atoms: _623  and  _626
REMARK  251  A    between atoms: _626  and  _627
REMARK                            x       y       z     vdW  Elec       q    Type
REMARK                         _______ _______ _______ _____ _____    ______ ____
ROOT
ATOM      1  N   PRO A   1      10.704  18.795  14.817  0.00  0.00    -0.212 NA
ATOM      2  CA  PRO A   1      11.003  18.635  16.228  0.00  0.00    +0.137 C 
ATOM      3  CB  PRO A   1      10.712  17.140  16.469  0.00  0.00    +0.027 C 
ATOM      4  CG  PRO A   1      10.952  16.501  15.168  0.00  0.00    +0.021 C 
ATOM      5  CD  PRO A   1      10.462  17.505  14.146  0.00  0.00    +0.089 C 
ENDROOT
BRANCH   2   6
ATOM      6  C   PRO A   1      12.462  18.914  16.564  0.00  0.00    +0.224 C 
ATOM      7  O   PRO A   1      13.341  18.802  15.692  0.00  0.00    -0.287 OA
ENDBRANCH   2   6
TORSDOF 1
REMARK  Name = ../refined-set-2016/3iod/3iod_pocket.pdb
REMARK  251 active torsions:
REMARK  status: ('A' for Active; 'I' for Inactive)
REMARK    1  A    between atoms: _1  and  _3
REMARK    2  A    between atoms: _3  and  _4
REMARK    3  A    between atoms: _3  and  _6
REMARK    4  A    between atoms: _6  and  _7
REMARK    5  A    between atoms: _10  and  _12
REMARK    6  A    between atoms: _12  and  _13
REMARK    7  A    between atoms: _12  and  _15
REMARK    8  A    between atoms: _19  and  _20
REMARK    9  A    between atoms: _25  and  _27
REMARK   10  A    between atoms: _27  and  _28
REMARK   11  A    between atoms: _27  and  _30
REMARK   12  A    between atoms: _30  and  _31
REMARK   13  A    between atoms: _34  and  _36
REMARK   14  A    between atoms: _36  and  _37
REMARK   15  A    between atoms: _36  and  _39
REMARK   16  A    between atoms: _39  and  _40
REMARK   17  A    between atoms: _40  and  _41
REMARK   18  A    between atoms: _43  and  _45
REMARK   19  A    between atoms: _45  and  _46
REMARK   20  A    between atoms: _48  and  _50
REMARK   21  A    between atoms: _50  and  _51
REMARK   22  A    between atoms: _54  and  _56
REMARK   23  A    between atoms: _56  and  _57
REMARK   24  A    between atoms: _56  and  _59
REMARK   25  A    between atoms: _59  and  _60
REMARK   26  A    between atoms: _63  and  _65
REMARK   27  A    between atoms: _65  and  _66
REMARK   28  A    between atoms: _65  and  _68
REMARK   29  A    between atoms: _68  and  _69
REMARK   30  A    between atoms: _74  and  _76
REMARK   31  A    between atoms: _76  and  _77
REMARK   32  A    between atoms: _76  and  _79
REMARK   33  A    between atoms: _79  and  _80
REMARK   34  A    between atoms: _80  and  _81
REMARK   35  A    between atoms: _84  and  _86
REMARK   36  A    between atoms: _86  and  _87
REMARK   37  A    between atoms: _89  and  _91
REMARK   38  A    between atoms: _91  and  _92
REMARK   39  A    between atoms: _91  and  _94
REMARK   40  A    between atoms: _94  and  _95
REMARK   41  A    between atoms: _100  and  _102
REMARK   42  A    between atoms: _102  and  _103
REMARK   43  A    between atoms: _102  and  _105
REMARK   44  A    between atoms: _105  and  _106
REMARK   45  A    between atoms: _109  and  _111
REMARK   46  A    between atoms: _111  and  _112
REMARK   47  A    between atoms: _115  and  _117
REMARK   48  A    between atoms: _117  and  _118
REMARK   49  A    between atoms: _117  and  _120
REMARK   50  A    between atoms: _120  and  _121
REMARK   51  A    between atoms: _124  and  _126
REMARK   52  A    between atoms: _126  and  _127
REMARK   53  A    between atoms: _126  and  _129
REMARK   54  A    between atoms: _132  and  _134
REMARK   55  A    between atoms: _134  and  _135
REMARK   56  A    between atoms: _134  and  _137
REMARK   57  A    between atoms: _140  and  _142
REMARK   58  A    between atoms: _142  and  _143
REMARK   59  A    between atoms: _142  and  _145
REMARK   60  A    between atoms: _145  and  _146
REMARK   61  A    between atoms: _148  and  _150
REMARK   62  A    between atoms: _150  and  _151
REMARK   63  A    between atoms: _150  and  _153
REMARK   64  A    between atoms: _153  and  _154
REMARK   65  A    between atoms: _157  and  _159
REMARK   66  A    between atoms: _159  and  _160
REMARK   67  A    between atoms: _159  and  _162
REMARK   68  A    between atoms: _162  and  _163
REMARK   69  A    between atoms: _169  and  _171
REMARK   70  A    between atoms: _171  and  _172
REMARK   71  A    between atoms: _171  and  _174
REMARK   72  A    between atoms: _177  and  _179
REMARK   73  A    between atoms: _179  and  _180
REMARK   74  A    between atoms: _179  and  _182
REMARK   75  A    between atoms: _182  and  _183
REMARK   76  A    between atoms: _189  and  _190
REMARK   77  A    between atoms: _195  and  _197
REMARK   78  A    between atoms: _197  and  _198
REMARK   79  A    between atoms: _197  and  _200
REMARK   80  A    between atoms: _200  and  _201
REMARK   81  A    between atoms: _201  and  _202
REMARK   82  A    between atoms: _204  and  _206
REMARK   83  A    between atoms: _206  and  _207
REMARK   84  A    between atoms: _206  and  _209
REMARK   85  A    between atoms: _209  and  _210
REMARK   86  A    between atoms: _210  and  _211
REMARK   87  A    between atoms: _216  and  _218
REMARK   88  A    between atoms: _218  and  _219
REMARK   89  A    between atoms: _218  and  _221
REMARK   90  A    between atoms: _221  and  _222
REMARK   91  A    between atoms: _228  and  _230
REMARK   92  A    between atoms: _230  and  _231
REMARK   93  A    between atoms: _230  and  _233
REMARK   94  A    between atoms: _233  and  _234
REMARK   95  A    between atoms: _239  and  _240
REMARK   96  A    between atoms: _242  and  _244
REMARK   97  A    between atoms: _244  and  _245
REMARK   98  A    between atoms: _244  and  _247
REMARK   99  A    between atoms: _247  and  _248
REMARK  100  A    between atoms: _255  and  _256
REMARK  101  A    between atoms: _261  and  _263
REMARK  102  A    between atoms: _263  and  _264
REMARK  103  A    between atoms: _263  and  _266
REMARK  104  A    between atoms: _266  and  _267
REMARK  105  A    between atoms: _267  and  _268
REMARK  106  A    between atoms: _270  and  _272
REMARK  107  A    between atoms: _272  and  _273
REMARK  108  A    between atoms: _272  and  _275
REMARK  109  A    between atoms: _275  and  _276
REMARK  110  A    between atoms: _281  and  _282
REMARK  111  A    between atoms: _284  and  _286
REMARK  112  A    between atoms: _286  and  _287
REMARK  113  A    between atoms: _286  and  _289
REMARK  114  A    between atoms: _289  and  _290
REMARK  115  A    between atoms: _295  and  _297
REMARK  116  A    between atoms: _297  and  _298
REMARK  117  A    between atoms: _297  and  _300
REMARK  118  A    between atoms: _300  and  _301
REMARK  119  A    between atoms: _307  and  _309
REMARK  120  A    between atoms: _309  and  _310
REMARK  121  A    between atoms: _312  and  _314
REMARK  122  A    between atoms: _314  and  _315
REMARK  123  A    between atoms: _314  and  _317
REMARK  124  A    between atoms: _320  and  _322
REMARK  125  A    between atoms: _322  and  _323
REMARK  126  A    between atoms: _322  and  _325
REMARK  127  A    between atoms: _325  and  _326
REMARK  128  A    between atoms: _329  and  _331
REMARK  129  A    between atoms: _331  and  _332
REMARK  130  A    between atoms: _331  and  _334
REMARK  131  A    between atoms: _334  and  _335
REMARK  132  A    between atoms: _338  and  _340
REMARK  133  A    between atoms: _340  and  _341
REMARK  134  A    between atoms: _340  and  _343
REMARK  135  A    between atoms: _346  and  _348
REMARK  136  A    between atoms: _348  and  _349
REMARK  137  A    between atoms: _348  and  _351
REMARK  138  A    between atoms: _354  and  _356
REMARK  139  A    between atoms: _356  and  _357
REMARK  140  A    between atoms: _356  and  _359
REMARK  141  A    between atoms: _359  and  _360
REMARK  142  A    between atoms: _363  and  _365
REMARK  143  A    between atoms: _365  and  _366
REMARK  144  A    between atoms: _365  and  _368
REMARK  145  A    between atoms: _368  and  _369
REMARK  146  A    between atoms: _375  and  _377
REMARK  147  A    between atoms: _377  and  _378
REMARK  148  A    between atoms: _377  and  _380
REMARK  149  A    between atoms: _380  and  _381
REMARK  150  A    between atoms: _387  and  _389
REMARK  151  A    between atoms: _389  and  _390
REMARK  152  A    between atoms: _392  and  _394
REMARK  153  A    between atoms: _394  and  _395
REMARK  154  A    between atoms: _394  and  _397
REMARK  155  A    between atoms: _397  and  _398
REMARK  156  A    between atoms: _398  and  _399
REMARK  157  A    between atoms: _402  and  _404
REMARK  158  A    between atoms: _404  and  _405
REMARK  159  A    between atoms: _404  and  _407
REMARK  160  A    between atoms: _407  and  _408
REMARK  161  A    between atoms: _408  and  _409
REMARK  162  A    between atoms: _409  and  _410
REMARK  163  A    between atoms: _410  and  _411
REMARK  164  A    between atoms: _415  and  _417
REMARK  165  A    between atoms: _417  and  _418
REMARK  166  A    between atoms: _417  and  _420
REMARK  167  A    between atoms: _420  and  _421
REMARK  168  A    between atoms: _424  and  _426
REMARK  169  A    between atoms: _426  and  _427
REMARK  170  A    between atoms: _426  and  _429
REMARK  171  A    between atoms: _429  and  _430
REMARK  172  A    between atoms: _435  and  _436
REMARK  173  A    between atoms: _438  and  _440
REMARK  174  A    between atoms: _440  and  _441
REMARK  175  A    between atoms: _440  and  _443
REMARK  176  A    between atoms: _443  and  _444
REMARK  177  A    between atoms: _444  and  _445
REMARK  178  A    between atoms: _450  and  _452
REMARK  179  A    between atoms: _452  and  _453
REMARK  180  A    between atoms: _452  and  _455
REMARK  181  A    between atoms: _455  and  _456
REMARK  182  A    between atoms: _459  and  _461
REMARK  183  A    between atoms: _461  and  _462
REMARK  184  A    between atoms: _461  and  _464
REMARK  185  A    between atoms: _464  and  _465
REMARK  186  A    between atoms: _468  and  _470
REMARK  187  A    between atoms: _470  and  _471
REMARK  188  A    between atoms: _470  and  _473
REMARK  189  A    between atoms: _476  and  _478
REMARK  190  A    between atoms: _478  and  _479
REMARK  191  A    between atoms: _478  and  _481
REMARK  192  A    between atoms: _485  and  _486
REMARK  193  A    between atoms: _491  and  _493
REMARK  194  A    between atoms: _493  and  _494
REMARK  195  A    between atoms: _493  and  _496
REMARK  196  A    between atoms: _496  and  _497
REMARK  197  A    between atoms: _500  and  _502
REMARK  198  A    between atoms: _502  and  _503
REMARK  199  A    between atoms: _502  and  _505
REMARK  200  A    between atoms: _508  and  _510
REMARK  201  A    between atoms: _510  and  _511
REMARK  202  A    between atoms: _510  and  _513
REMARK  203  A    between atoms: _513  and  _514
REMARK  204  A    between atoms: _514  and  _515
REMARK  205  A    between atoms: _515  and  _516
REMARK  206  A    between atoms: _525  and  _527
REMARK  207  A    between atoms: _527  and  _528
REMARK  208  A    between atoms: _527  and  _530
REMARK  209  A    between atoms: _530  and  _531
REMARK  210  A    between atoms: _531  and  _532
REMARK  211  A    between atoms: _535  and  _537
REMARK  212  A    between atoms: _537  and  _538
REMARK  213  A    between atoms: _537  and  _540
REMARK  214  A    between atoms: _540  and  _541
REMARK  215  A    between atoms: _544  and  _546
REMARK  216  A    between atoms: _546  and  _547
REMARK  217  A    between atoms: _550  and  _552
REMARK  218  A    between atoms: _552  and  _553
REMARK  219  A    between atoms: _552  and  _555
REMARK  220  A    between atoms: _555  and  _556
REMARK  221  A    between atoms: _556  and  _557
REMARK  222  A    between atoms: _559  and  _561
REMARK  223  A    between atoms: _561  and  _562
REMARK  224  A    between atoms: _561  and  _564
REMARK  225  A    between atoms: _564  and  _565
REMARK  226  A    between atoms: _567  and  _569
REMARK  227  A    between atoms: _569  and  _570
REMARK  228  A    between atoms: _569  and  _572
REMARK  229  A    between atoms: _572  and  _573
REMARK  230  A    between atoms: _575  and  _577
REMARK  231  A    between atoms: _577  and  _578
REMARK  232  A    between atoms: _577  and  _580
REMARK  233  A    between atoms: _580  and  _581
REMARK  234  A    between atoms: _581  and  _582
REMARK  235  A    between atoms: _582  and  _583
REMARK  236  A    between atoms: _592  and  _594
REMARK  237  A    between atoms: _594  and  _595
REMARK  238  A    between atoms: _594  and  _597
REMARK  239  A    between atoms: _597  and  _598
REMARK  240  A    between atoms: _603  and  _605
REMARK  241  A    between atoms: _605  and  _606
REMARK  242  A    between atoms: _605  and  _608
REMARK  243  A    between atoms: _608  and  _609
REMARK  244  A    between atoms: _612  and  _614
REMARK  245  A    between atoms: _614  and  _615
REMARK  246  A    between atoms: _614  and  _617
REMARK  247  A    between atoms: _617  and  _618
REMARK  248  A    between atoms: _621  and  _623
REMARK  249  A    between atoms: _623  and  _624
REMARK  250  A    between atoms: _623  and  _626
REMARK  251  A    between atoms: _626  and  _627
REMARK                            x       y       z     vdW  Elec       q    Type
REMARK                         _______ _______ _______ _____ _____    ______ ____
ROOT
ATOM      1  CA  TYR A   2      15.429  12.264  22.695  0.00  0.00    +0.141 C 
ENDROOT
BRANCH   1   3
ATOM      2  C   MET A   1      13.463  12.611  21.279  0.00  0.00    +0.238 C 
ATOM      3  N   TYR A   2      14.543  13.104  21.892  0.00  0.00    -0.298 N 
ATOM      4  H   TYR A   2      14.760  14.117  21.795  0.00  0.00    +0.150 HD
ATOM      5  O   MET A   1      13.118  11.430  21.366  0.00  0.00    -0.274 OA
BRANCH   2   6
ATOM      6  CA  MET A   1      12.685  13.568  20.392  0.00  0.00    +0.146 C 
BRANCH   6   7
ATOM      7  N   MET A   1      12.742  14.951  20.911  0.00  0.00    -0.238 NA
ATOM      8  H   MET A   1      13.458  15.610  20.543  0.00  0.00    +0.142 HD
ENDBRANCH   6   7
BRANCH   6   9
ATOM      9  CB  MET A   1      13.243  13.464  18.973  0.00  0.00    +0.038 C 
BRANCH   9  10
ATOM     10  CG  MET A   1      12.370  14.179  17.943  0.00  0.00    +0.060 C 
BRANCH  10  11
ATOM     11  SD  MET A   1      10.785  13.349  17.734  0.00  0.00    -0.139 S 
ATOM     12  CE  MET A   1      11.213  12.133  16.531  0.00  0.00    +0.069 C 
ENDBRANCH  10  11
ENDBRANCH   9  10
ENDBRANCH   6   9
ENDBRANCH   2   6
ENDBRANCH   1   3
BRANCH   1  13
ATOM     13  C   TYR A   2      15.675  12.818  24.117  0.00  0.00    +0.227 C 
ATOM     14  O   TYR A   2      16.838  12.956  24.520  0.00  0.00    -0.286 OA
ENDBRANCH   1  13
BRANCH   1  15
ATOM     15  CB  TYR A   2      16.774  12.045  21.962  0.00  0.00    +0.054 C 
BRANCH  15  16
ATOM     16  CG  TYR A   2      16.607  11.227  20.710  0.00  0.00    -0.020 A 
ATOM     17  CD2 TYR A   2      16.386   9.848  20.774  0.00  0.00    -0.001 A 
ATOM     18  CE2 TYR A   2      16.217   9.096  19.618  0.00  0.00    +0.036 A 
ATOM     19  CZ  TYR A   2      16.265   9.725  18.385  0.00  0.00    +0.134 A 
ATOM     20  CE1 TYR A   2      16.467  11.095  18.306  0.00  0.00    +0.036 A 
ATOM     21  CD1 TYR A   2      16.640  11.826  19.469  0.00  0.00    -0.001 A 
BRANCH  19  22
ATOM     22  OH  TYR A   2      16.082   9.013  17.223  0.00  0.00    -0.506 OA
ATOM     23  HH  TYR A   2      16.880   9.115  16.646  0.00  0.00    +0.292 HD
ENDBRANCH  19  22
ENDBRANCH  15  16
ENDBRANCH   1  15
TORSDOF 10
REMARK  Name = ../refined-set-2016/3iod/3iod_pocket.pdb
REMARK  251 active torsions:
REMARK  status: ('A' for Active; 'I' for Inactive)
REMARK    1  A    between atoms: _1  and  _3
REMARK    2  A    between atoms: _3  and  _4
REMARK    3  A    between atoms: _3  and  _6
REMARK    4  A    between atoms: _6  and  _7
REMARK    5  A    between atoms: _10  and  _12
REMARK    6  A    between atoms: _12  and  _13
REMARK    7  A    between atoms: _12  and  _15
REMARK    8  A    between atoms: _19  and  _20
REMARK    9  A    between atoms: _25  and  _27
REMARK   10  A    between atoms: _27  and  _28
REMARK   11  A    between atoms: _27  and  _30
REMARK   12  A    between atoms: _30  and  _31
REMARK   13  A    between atoms: _34  and  _36
REMARK   14  A    between atoms: _36  and  _37
REMARK   15  A    between atoms: _36  and  _39
REMARK   16  A    between atoms: _39  and  _40
REMARK   17  A    between atoms: _40  and  _41
REMARK   18  A    between atoms: _43  and  _45
REMARK   19  A    between atoms: _45  and  _46
REMARK   20  A    between atoms: _48  and  _50
REMARK   21  A    between atoms: _50  and  _51
REMARK   22  A    between atoms: _54  and  _56
REMARK   23  A    between atoms: _56  and  _57
REMARK   24  A    between atoms: _56  and  _59
REMARK   25  A    between atoms: _59  and  _60
REMARK   26  A    between atoms: _63  and  _65
REMARK   27  A    between atoms: _65  and  _66
REMARK   28  A    between atoms: _65  and  _68
REMARK   29  A    between atoms: _68  and  _69
REMARK   30  A    between atoms: _74  and  _76
REMARK   31  A    between atoms: _76  and  _77
REMARK   32  A    between atoms: _76  and  _79
REMARK   33  A    between atoms: _79  and  _80
REMARK   34  A    between atoms: _80  and  _81
REMARK   35  A    between atoms: _84  and  _86
REMARK   36  A    between atoms: _86  and  _87
REMARK   37  A    between atoms: _89  and  _91
REMARK   38  A    between atoms: _91  and  _92
REMARK   39  A    between atoms: _91  and  _94
REMARK   40  A    between atoms: _94  and  _95
REMARK   41  A    between atoms: _100  and  _102
REMARK   42  A    between atoms: _102  and  _103
REMARK   43  A    between atoms: _102  and  _105
REMARK   44  A    between atoms: _105  and  _106
REMARK   45  A    between atoms: _109  and  _111
REMARK   46  A    between atoms: _111  and  _112
REMARK   47  A    between atoms: _115  and  _117
REMARK   48  A    between atoms: _117  and  _118
REMARK   49  A    between atoms: _117  and  _120
REMARK   50  A    between atoms: _120  and  _121
REMARK   51  A    between atoms: _124  and  _126
REMARK   52  A    between atoms: _126  and  _127
REMARK   53  A    between atoms: _126  and  _129
REMARK   54  A    between atoms: _132  and  _134
REMARK   55  A    between atoms: _134  and  _135
REMARK   56  A    between atoms: _134  and  _137
REMARK   57  A    between atoms: _140  and  _142
REMARK   58  A    between atoms: _142  and  _143
REMARK   59  A    between atoms: _142  and  _145
REMARK   60  A    between atoms: _145  and  _146
REMARK   61  A    between atoms: _148  and  _150
REMARK   62  A    between atoms: _150  and  _151
REMARK   63  A    between atoms: _150  and  _153
REMARK   64  A    between atoms: _153  and  _154
REMARK   65  A    between atoms: _157  and  _159
REMARK   66  A    between atoms: _159  and  _160
REMARK   67  A    between atoms: _159  and  _162
REMARK   68  A    between atoms: _162  and  _163
REMARK   69  A    between atoms: _169  and  _171
REMARK   70  A    between atoms: _171  and  _172
REMARK   71  A    between atoms: _171  and  _174
REMARK   72  A    between atoms: _177  and  _179
REMARK   73  A    between atoms: _179  and  _180
REMARK   74  A    between atoms: _179  and  _182
REMARK   75  A    between atoms: _182  and  _183
REMARK   76  A    between atoms: _189  and  _190
REMARK   77  A    between atoms: _195  and  _197
REMARK   78  A    between atoms: _197  and  _198
REMARK   79  A    between atoms: _197  and  _200
REMARK   80  A    between atoms: _200  and  _201
REMARK   81  A    between atoms: _201  and  _202
REMARK   82  A    between atoms: _204  and  _206
REMARK   83  A    between atoms: _206  and  _207
REMARK   84  A    between atoms: _206  and  _209
REMARK   85  A    between atoms: _209  and  _210
REMARK   86  A    between atoms: _210  and  _211
REMARK   87  A    between atoms: _216  and  _218
REMARK   88  A    between atoms: _218  and  _219
REMARK   89  A    between atoms: _218  and  _221
REMARK   90  A    between atoms: _221  and  _222
REMARK   91  A    between atoms: _228  and  _230
REMARK   92  A    between atoms: _230  and  _231
REMARK   93  A    between atoms: _230  and  _233
REMARK   94  A    between atoms: _233  and  _234
REMARK   95  A    between atoms: _239  and  _240
REMARK   96  A    between atoms: _242  and  _244
REMARK   97  A    between atoms: _244  and  _245
REMARK   98  A    between atoms: _244  and  _247
REMARK   99  A    between atoms: _247  and  _248
REMARK  100  A    between atoms: _255  and  _256
REMARK  101  A    between atoms: _261  and  _263
REMARK  102  A    between atoms: _263  and  _264
REMARK  103  A    between atoms: _263  and  _266
REMARK  104  A    between atoms: _266  and  _267
REMARK  105  A    between atoms: _267  and  _268
REMARK  106  A    between atoms: _270  and  _272
REMARK  107  A    between atoms: _272  and  _273
REMARK  108  A    between atoms: _272  and  _275
REMARK  109  A    between atoms: _275  and  _276
REMARK  110  A    between atoms: _281  and  _282
REMARK  111  A    between atoms: _284  and  _286
REMARK  112  A    between atoms: _286  and  _287
REMARK  113  A    between atoms: _286  and  _289
REMARK  114  A    between atoms: _289  and  _290
REMARK  115  A    between atoms: _295  and  _297
REMARK  116  A    between atoms: _297  and  _298
REMARK  117  A    between atoms: _297  and  _300
REMARK  118  A    between atoms: _300  and  _301
REMARK  119  A    between atoms: _307  and  _309
REMARK  120  A    between atoms: _309  and  _310
REMARK  121  A    between atoms: _312  and  _314
REMARK  122  A    between atoms: _314  and  _315
REMARK  123  A    between atoms: _314  and  _317
REMARK  124  A    between atoms: _320  and  _322
REMARK  125  A    between atoms: _322  and  _323
REMARK  126  A    between atoms: _322  and  _325
REMARK  127  A    between atoms: _325  and  _326
REMARK  128  A    between atoms: _329  and  _331
REMARK  129  A    between atoms: _331  and  _332
REMARK  130  A    between atoms: _331  and  _334
REMARK  131  A    between atoms: _334  and  _335
REMARK  132  A    between atoms: _338  and  _340
REMARK  133  A    between atoms: _340  and  _341
REMARK  134  A    between atoms: _340  and  _343
REMARK  135  A    between atoms: _346  and  _348
REMARK  136  A    between atoms: _348  and  _349
REMARK  137  A    between atoms: _348  and  _351
REMARK  138  A    between atoms: _354  and  _356
REMARK  139  A    between atoms: _356  and  _357
REMARK  140  A    between atoms: _356  and  _359
REMARK  141  A    between atoms: _359  and  _360
REMARK  142  A    between atoms: _363  and  _365
REMARK  143  A    between atoms: _365  and  _366
REMARK  144  A    between atoms: _365  and  _368
REMARK  145  A    between atoms: _368  and  _369
REMARK  146  A    between atoms: _375  and  _377
REMARK  147  A    between atoms: _377  and  _378
REMARK  148  A    between atoms: _377  and  _380
REMARK  149  A    between atoms: _380  and  _381
REMARK  150  A    between atoms: _387  and  _389
REMARK  151  A    between atoms: _389  and  _390
REMARK  152  A    between atoms: _392  and  _394
REMARK  153  A    between atoms: _394  and  _395
REMARK  154  A    between atoms: _394  and  _397
REMARK  155  A    between atoms: _397  and  _398
REMARK  156  A    between atoms: _398  and  _399
REMARK  157  A    between atoms: _402  and  _404
REMARK  158  A    between atoms: _404  and  _405
REMARK  159  A    between atoms: _404  and  _407
REMARK  160  A    between atoms: _407  and  _408
REMARK  161  A    between atoms: _408  and  _409
REMARK  162  A    between atoms: _409  and  _410
REMARK  163  A    between atoms: _410  and  _411
REMARK  164  A    between atoms: _415  and  _417
REMARK  165  A    between atoms: _417  and  _418
REMARK  166  A    between atoms: _417  and  _420
REMARK  167  A    between atoms: _420  and  _421
REMARK  168  A    between atoms: _424  and  _426
REMARK  169  A    between atoms: _426  and  _427
REMARK  170  A    between atoms: _426  and  _429
REMARK  171  A    between atoms: _429  and  _430
REMARK  172  A    between atoms: _435  and  _436
REMARK  173  A    between atoms: _438  and  _440
REMARK  174  A    between atoms: _440  and  _441
REMARK  175  A    between atoms: _440  and  _443
REMARK  176  A    between atoms: _443  and  _444
REMARK  177  A    between atoms: _444  and  _445
REMARK  178  A    between atoms: _450  and  _452
REMARK  179  A    between atoms: _452  and  _453
REMARK  180  A    between atoms: _452  and  _455
REMARK  181  A    between atoms: _455  and  _456
REMARK  182  A    between atoms: _459  and  _461
REMARK  183  A    between atoms: _461  and  _462
REMARK  184  A    between atoms: _461  and  _464
REMARK  185  A    between atoms: _464  and  _465
REMARK  186  A    between atoms: _468  and  _470
REMARK  187  A    between atoms: _470  and  _471
REMARK  188  A    between atoms: _470  and  _473
REMARK  189  A    between atoms: _476  and  _478
REMARK  190  A    between atoms: _478  and  _479
REMARK  191  A    between atoms: _478  and  _481
REMARK  192  A    between atoms: _485  and  _486
REMARK  193  A    between atoms: _491  and  _493
REMARK  194  A    between atoms: _493  and  _494
REMARK  195  A    between atoms: _493  and  _496
REMARK  196  A    between atoms: _496  and  _497
REMARK  197  A    between atoms: _500  and  _502
REMARK  198  A    between atoms: _502  and  _503
REMARK  199  A    between atoms: _502  and  _505
REMARK  200  A    between atoms: _508  and  _510
REMARK  201  A    between atoms: _510  and  _511
REMARK  202  A    between atoms: _510  and  _513
REMARK  203  A    between atoms: _513  and  _514
REMARK  204  A    between atoms: _514  and  _515
REMARK  205  A    between atoms: _515  and  _516
REMARK  206  A    between atoms: _525  and  _527
REMARK  207  A    between atoms: _527  and  _528
REMARK  208  A    between atoms: _527  and  _530
REMARK  209  A    between atoms: _530  and  _531
REMARK  210  A    between atoms: _531  and  _532
REMARK  211  A    between atoms: _535  and  _537
REMARK  212  A    between atoms: _537  and  _538
REMARK  213  A    between atoms: _537  and  _540
REMARK  214  A    between atoms: _540  and  _541
REMARK  215  A    between atoms: _544  and  _546
REMARK  216  A    between atoms: _546  and  _547
REMARK  217  A    between atoms: _550  and  _552
REMARK  218  A    between atoms: _552  and  _553
REMARK  219  A    between atoms: _552  and  _555
REMARK  220  A    between atoms: _555  and  _556
REMARK  221  A    between atoms: _556  and  _557
REMARK  222  A    between atoms: _559  and  _561
REMARK  223  A    between atoms: _561  and  _562
REMARK  224  A    between atoms: _561  and  _564
REMARK  225  A    between atoms: _564  and  _565
REMARK  226  A    between atoms: _567  and  _569
REMARK  227  A    between atoms: _569  and  _570
REMARK  228  A    between atoms: _569  and  _572
REMARK  229  A    between atoms: _572  and  _573
REMARK  230  A    between atoms: _575  and  _577
REMARK  231  A    between atoms: _577  and  _578
REMARK  232  A    between atoms: _577  and  _580
REMARK  233  A    between atoms: _580  and  _581
REMARK  234  A    between atoms: _581  and  _582
REMARK  235  A    between atoms: _582  and  _583
REMARK  236  A    between atoms: _592  and  _594
REMARK  237  A    between atoms: _594  and  _595
REMARK  238  A    between atoms: _594  and  _597
REMARK  239  A    between atoms: _597  and  _598
REMARK  240  A    between atoms: _603  and  _605
REMARK  241  A    between atoms: _605  and  _606
REMARK  242  A    between atoms: _605  and  _608
REMARK  243  A    between atoms: _608  and  _609
REMARK  244  A    between atoms: _612  and  _614
REMARK  245  A    between atoms: _614  and  _615
REMARK  246  A    between atoms: _614  and  _617
REMARK  247  A    between atoms: _617  and  _618
REMARK  248  A    between atoms: _621  and  _623
REMARK  249  A    between atoms: _623  and  _624
REMARK  250  A    between atoms: _623  and  _626
REMARK  251  A    between atoms: _626  and  _627
REMARK                            x       y       z     vdW  Elec       q    Type
REMARK                         _______ _______ _______ _____ _____    ______ ____
ROOT
ATOM      1  C   HIS A   1      21.052   2.588  11.368  0.00  0.00    +0.239 C 
ATOM      2  O   HIS A   1      20.263   3.512  11.592  0.00  0.00    -0.274 OA
ATOM      3  N   PHE A   2      20.640   1.364  11.073  0.00  0.00    -0.298 N 
ATOM      4  H   PHE A   2      21.317   0.577  11.011  0.00  0.00    +0.150 HD
ENDROOT
BRANCH   1   5
ATOM      5  CA  HIS A   1      22.572   2.814  11.407  0.00  0.00    +0.151 C 
BRANCH   5   6
ATOM      6  N   HIS A   1      23.257   1.844  12.249  0.00  0.00    -0.238 NA
ATOM      7  H   HIS A   1      24.014   1.256  11.845  0.00  0.00    +0.142 HD
ENDBRANCH   5   6
BRANCH   5   8
ATOM      8  CB  HIS A   1      23.103   2.781   9.970  0.00  0.00    +0.074 C 
BRANCH   8   9
ATOM      9  CG  HIS A   1      22.284   3.604   9.022  0.00  0.00    +0.082 A 
ATOM     10  ND1 HIS A   1      22.197   4.972   9.124  0.00  0.00    -0.227 NA
ATOM     11  CE1 HIS A   1      21.389   5.434   8.186  0.00  0.00    +0.199 A 
ATOM     12  NE2 HIS A   1      20.947   4.411   7.479  0.00  0.00    -0.221 NA
ATOM     13  CD2 HIS A   1      21.486   3.252   7.982  0.00  0.00    +0.115 A 
ENDBRANCH   8   9
ENDBRANCH   5   8
ENDBRANCH   1   5
BRANCH   3  14
ATOM     14  CA  PHE A   2      19.217   1.141  10.836  0.00  0.00    +0.141 C 
BRANCH  14  15
ATOM     15  C   PHE A   2      18.427   1.094  12.138  0.00  0.00    +0.227 C 
ATOM     16  O   PHE A   2      17.220   1.356  12.119  0.00  0.00    -0.286 OA
ENDBRANCH  14  15
BRANCH  14  17
ATOM     17  CB  PHE A   2      18.957  -0.102   9.973  0.00  0.00    +0.054 C 
BRANCH  17  18
ATOM     18  CG  PHE A   2      19.254   0.132   8.519  0.00  0.00    -0.020 A 
ATOM     19  CD2 PHE A   2      20.262  -0.590   7.862  0.00  0.00    -0.004 A 
ATOM     20  CE2 PHE A   2      20.539  -0.353   6.510  0.00  0.00    -0.000 A 
ATOM     21  CZ  PHE A   2      19.815   0.617   5.808  0.00  0.00    -0.000 A 
ATOM     22  CE1 PHE A   2      18.818   1.328   6.449  0.00  0.00    -0.000 A 
ATOM     23  CD1 PHE A   2      18.546   1.097   7.804  0.00  0.00    -0.004 A 
ENDBRANCH  17  18
ENDBRANCH  14  17
ENDBRANCH   3  14
TORSDOF 8
REMARK  Name = ../refined-set-2016/3iod/3iod_pocket.pdb
REMARK  251 active torsions:
REMARK  status: ('A' for Active; 'I' for Inactive)
REMARK    1  A    between atoms: _1  and  _3
REMARK    2  A    between atoms: _3  and  _4
REMARK    3  A    between atoms: _3  and  _6
REMARK    4  A    between atoms: _6  and  _7
REMARK    5  A    between atoms: _10  and  _12
REMARK    6  A    between atoms: _12  and  _13
REMARK    7  A    between atoms: _12  and  _15
REMARK    8  A    between atoms: _19  and  _20
REMARK    9  A    between atoms: _25  and  _27
REMARK   10  A    between atoms: _27  and  _28
REMARK   11  A    between atoms: _27  and  _30
REMARK   12  A    between atoms: _30  and  _31
REMARK   13  A    between atoms: _34  and  _36
REMARK   14  A    between atoms: _36  and  _37
REMARK   15  A    between atoms: _36  and  _39
REMARK   16  A    between atoms: _39  and  _40
REMARK   17  A    between atoms: _40  and  _41
REMARK   18  A    between atoms: _43  and  _45
REMARK   19  A    between atoms: _45  and  _46
REMARK   20  A    between atoms: _48  and  _50
REMARK   21  A    between atoms: _50  and  _51
REMARK   22  A    between atoms: _54  and  _56
REMARK   23  A    between atoms: _56  and  _57
REMARK   24  A    between atoms: _56  and  _59
REMARK   25  A    between atoms: _59  and  _60
REMARK   26  A    between atoms: _63  and  _65
REMARK   27  A    between atoms: _65  and  _66
REMARK   28  A    between atoms: _65  and  _68
REMARK   29  A    between atoms: _68  and  _69
REMARK   30  A    between atoms: _74  and  _76
REMARK   31  A    between atoms: _76  and  _77
REMARK   32  A    between atoms: _76  and  _79
REMARK   33  A    between atoms: _79  and  _80
REMARK   34  A    between atoms: _80  and  _81
REMARK   35  A    between atoms: _84  and  _86
REMARK   36  A    between atoms: _86  and  _87
REMARK   37  A    between atoms: _89  and  _91
REMARK   38  A    between atoms: _91  and  _92
REMARK   39  A    between atoms: _91  and  _94
REMARK   40  A    between atoms: _94  and  _95
REMARK   41  A    between atoms: _100  and  _102
REMARK   42  A    between atoms: _102  and  _103
REMARK   43  A    between atoms: _102  and  _105
REMARK   44  A    between atoms: _105  and  _106
REMARK   45  A    between atoms: _109  and  _111
REMARK   46  A    between atoms: _111  and  _112
REMARK   47  A    between atoms: _115  and  _117
REMARK   48  A    between atoms: _117  and  _118
REMARK   49  A    between atoms: _117  and  _120
REMARK   50  A    between atoms: _120  and  _121
REMARK   51  A    between atoms: _124  and  _126
REMARK   52  A    between atoms: _126  and  _127
REMARK   53  A    between atoms: _126  and  _129
REMARK   54  A    between atoms: _132  and  _134
REMARK   55  A    between atoms: _134  and  _135
REMARK   56  A    between atoms: _134  and  _137
REMARK   57  A    between atoms: _140  and  _142
REMARK   58  A    between atoms: _142  and  _143
REMARK   59  A    between atoms: _142  and  _145
REMARK   60  A    between atoms: _145  and  _146
REMARK   61  A    between atoms: _148  and  _150
REMARK   62  A    between atoms: _150  and  _151
REMARK   63  A    between atoms: _150  and  _153
REMARK   64  A    between atoms: _153  and  _154
REMARK   65  A    between atoms: _157  and  _159
REMARK   66  A    between atoms: _159  and  _160
REMARK   67  A    between atoms: _159  and  _162
REMARK   68  A    between atoms: _162  and  _163
REMARK   69  A    between atoms: _169  and  _171
REMARK   70  A    between atoms: _171  and  _172
REMARK   71  A    between atoms: _171  and  _174
REMARK   72  A    between atoms: _177  and  _179
REMARK   73  A    between atoms: _179  and  _180
REMARK   74  A    between atoms: _179  and  _182
REMARK   75  A    between atoms: _182  and  _183
REMARK   76  A    between atoms: _189  and  _190
REMARK   77  A    between atoms: _195  and  _197
REMARK   78  A    between atoms: _197  and  _198
REMARK   79  A    between atoms: _197  and  _200
REMARK   80  A    between atoms: _200  and  _201
REMARK   81  A    between atoms: _201  and  _202
REMARK   82  A    between atoms: _204  and  _206
REMARK   83  A    between atoms: _206  and  _207
REMARK   84  A    between atoms: _206  and  _209
REMARK   85  A    between atoms: _209  and  _210
REMARK   86  A    between atoms: _210  and  _211
REMARK   87  A    between atoms: _216  and  _218
REMARK   88  A    between atoms: _218  and  _219
REMARK   89  A    between atoms: _218  and  _221
REMARK   90  A    between atoms: _221  and  _222
REMARK   91  A    between atoms: _228  and  _230
REMARK   92  A    between atoms: _230  and  _231
REMARK   93  A    between atoms: _230  and  _233
REMARK   94  A    between atoms: _233  and  _234
REMARK   95  A    between atoms: _239  and  _240
REMARK   96  A    between atoms: _242  and  _244
REMARK   97  A    between atoms: _244  and  _245
REMARK   98  A    between atoms: _244  and  _247
REMARK   99  A    between atoms: _247  and  _248
REMARK  100  A    between atoms: _255  and  _256
REMARK  101  A    between atoms: _261  and  _263
REMARK  102  A    between atoms: _263  and  _264
REMARK  103  A    between atoms: _263  and  _266
REMARK  104  A    between atoms: _266  and  _267
REMARK  105  A    between atoms: _267  and  _268
REMARK  106  A    between atoms: _270  and  _272
REMARK  107  A    between atoms: _272  and  _273
REMARK  108  A    between atoms: _272  and  _275
REMARK  109  A    between atoms: _275  and  _276
REMARK  110  A    between atoms: _281  and  _282
REMARK  111  A    between atoms: _284  and  _286
REMARK  112  A    between atoms: _286  and  _287
REMARK  113  A    between atoms: _286  and  _289
REMARK  114  A    between atoms: _289  and  _290
REMARK  115  A    between atoms: _295  and  _297
REMARK  116  A    between atoms: _297  and  _298
REMARK  117  A    between atoms: _297  and  _300
REMARK  118  A    between atoms: _300  and  _301
REMARK  119  A    between atoms: _307  and  _309
REMARK  120  A    between atoms: _309  and  _310
REMARK  121  A    between atoms: _312  and  _314
REMARK  122  A    between atoms: _314  and  _315
REMARK  123  A    between atoms: _314  and  _317
REMARK  124  A    between atoms: _320  and  _322
REMARK  125  A    between atoms: _322  and  _323
REMARK  126  A    between atoms: _322  and  _325
REMARK  127  A    between atoms: _325  and  _326
REMARK  128  A    between atoms: _329  and  _331
REMARK  129  A    between atoms: _331  and  _332
REMARK  130  A    between atoms: _331  and  _334
REMARK  131  A    between atoms: _334  and  _335
REMARK  132  A    between atoms: _338  and  _340
REMARK  133  A    between atoms: _340  and  _341
REMARK  134  A    between atoms: _340  and  _343
REMARK  135  A    between atoms: _346  and  _348
REMARK  136  A    between atoms: _348  and  _349
REMARK  137  A    between atoms: _348  and  _351
REMARK  138  A    between atoms: _354  and  _356
REMARK  139  A    between atoms: _356  and  _357
REMARK  140  A    between atoms: _356  and  _359
REMARK  141  A    between atoms: _359  and  _360
REMARK  142  A    between atoms: _363  and  _365
REMARK  143  A    between atoms: _365  and  _366
REMARK  144  A    between atoms: _365  and  _368
REMARK  145  A    between atoms: _368  and  _369
REMARK  146  A    between atoms: _375  and  _377
REMARK  147  A    between atoms: _377  and  _378
REMARK  148  A    between atoms: _377  and  _380
REMARK  149  A    between atoms: _380  and  _381
REMARK  150  A    between atoms: _387  and  _389
REMARK  151  A    between atoms: _389  and  _390
REMARK  152  A    between atoms: _392  and  _394
REMARK  153  A    between atoms: _394  and  _395
REMARK  154  A    between atoms: _394  and  _397
REMARK  155  A    between atoms: _397  and  _398
REMARK  156  A    between atoms: _398  and  _399
REMARK  157  A    between atoms: _402  and  _404
REMARK  158  A    between atoms: _404  and  _405
REMARK  159  A    between atoms: _404  and  _407
REMARK  160  A    between atoms: _407  and  _408
REMARK  161  A    between atoms: _408  and  _409
REMARK  162  A    between atoms: _409  and  _410
REMARK  163  A    between atoms: _410  and  _411
REMARK  164  A    between atoms: _415  and  _417
REMARK  165  A    between atoms: _417  and  _418
REMARK  166  A    between atoms: _417  and  _420
REMARK  167  A    between atoms: _420  and  _421
REMARK  168  A    between atoms: _424  and  _426
REMARK  169  A    between atoms: _426  and  _427
REMARK  170  A    between atoms: _426  and  _429
REMARK  171  A    between atoms: _429  and  _430
REMARK  172  A    between atoms: _435  and  _436
REMARK  173  A    between atoms: _438  and  _440
REMARK  174  A    between atoms: _440  and  _441
REMARK  175  A    between atoms: _440  and  _443
REMARK  176  A    between atoms: _443  and  _444
REMARK  177  A    between atoms: _444  and  _445
REMARK  178  A    between atoms: _450  and  _452
REMARK  179  A    between atoms: _452  and  _453
REMARK  180  A    between atoms: _452  and  _455
REMARK  181  A    between atoms: _455  and  _456
REMARK  182  A    between atoms: _459  and  _461
REMARK  183  A    between atoms: _461  and  _462
REMARK  184  A    between atoms: _461  and  _464
REMARK  185  A    between atoms: _464  and  _465
REMARK  186  A    between atoms: _468  and  _470
REMARK  187  A    between atoms: _470  and  _471
REMARK  188  A    between atoms: _470  and  _473
REMARK  189  A    between atoms: _476  and  _478
REMARK  190  A    between atoms: _478  and  _479
REMARK  191  A    between atoms: _478  and  _481
REMARK  192  A    between atoms: _485  and  _486
REMARK  193  A    between atoms: _491  and  _493
REMARK  194  A    between atoms: _493  and  _494
REMARK  195  A    between atoms: _493  and  _496
REMARK  196  A    between atoms: _496  and  _497
REMARK  197  A    between atoms: _500  and  _502
REMARK  198  A    between atoms: _502  and  _503
REMARK  199  A    between atoms: _502  and  _505
REMARK  200  A    between atoms: _508  and  _510
REMARK  201  A    between atoms: _510  and  _511
REMARK  202  A    between atoms: _510  and  _513
REMARK  203  A    between atoms: _513  and  _514
REMARK  204  A    between atoms: _514  and  _515
REMARK  205  A    between atoms: _515  and  _516
REMARK  206  A    between atoms: _525  and  _527
REMARK  207  A    between atoms: _527  and  _528
REMARK  208  A    between atoms: _527  and  _530
REMARK  209  A    between atoms: _530  and  _531
REMARK  210  A    between atoms: _531  and  _532
REMARK  211  A    between atoms: _535  and  _537
REMARK  212  A    between atoms: _537  and  _538
REMARK  213  A    between atoms: _537  and  _540
REMARK  214  A    between atoms: _540  and  _541
REMARK  215  A    between atoms: _544  and  _546
REMARK  216  A    between atoms: _546  and  _547
REMARK  217  A    between atoms: _550  and  _552
REMARK  218  A    between atoms: _552  and  _553
REMARK  219  A    between atoms: _552  and  _555
REMARK  220  A    between atoms: _555  and  _556
REMARK  221  A    between atoms: _556  and  _557
REMARK  222  A    between atoms: _559  and  _561
REMARK  223  A    between atoms: _561  and  _562
REMARK  224  A    between atoms: _561  and  _564
REMARK  225  A    between atoms: _564  and  _565
REMARK  226  A    between atoms: _567  and  _569
REMARK  227  A    between atoms: _569  and  _570
REMARK  228  A    between atoms: _569  and  _572
REMARK  229  A    between atoms: _572  and  _573
REMARK  230  A    between atoms: _575  and  _577
REMARK  231  A    between atoms: _577  and  _578
REMARK  232  A    between atoms: _577  and  _580
REMARK  233  A    between atoms: _580  and  _581
REMARK  234  A    between atoms: _581  and  _582
REMARK  235  A    between atoms: _582  and  _583
REMARK  236  A    between atoms: _592  and  _594
REMARK  237  A    between atoms: _594  and  _595
REMARK  238  A    between atoms: _594  and  _597
REMARK  239  A    between atoms: _597  and  _598
REMARK  240  A    between atoms: _603  and  _605
REMARK  241  A    between atoms: _605  and  _606
REMARK  242  A    between atoms: _605  and  _608
REMARK  243  A    between atoms: _608  and  _609
REMARK  244  A    between atoms: _612  and  _614
REMARK  245  A    between atoms: _614  and  _615
REMARK  246  A    between atoms: _614  and  _617
REMARK  247  A    between atoms: _617  and  _618
REMARK  248  A    between atoms: _621  and  _623
REMARK  249  A    between atoms: _623  and  _624
REMARK  250  A    between atoms: _623  and  _626
REMARK  251  A    between atoms: _626  and  _627
REMARK                            x       y       z     vdW  Elec       q    Type
REMARK                         _______ _______ _______ _____ _____    ______ ____
ROOT
ATOM      1  C   LEU A   3      13.246   3.064  13.992  0.00  0.00    +0.241 C 
ATOM      2  N   THR A   4      14.149   3.422  14.902  0.00  0.00    -0.295 N 
ATOM      3  H   THR A   4      15.161   3.275  14.714  0.00  0.00    +0.150 HD
ATOM      4  O   LEU A   3      12.031   3.156  14.162  0.00  0.00    -0.273 OA
ENDROOT
BRANCH   2   5
ATOM      5  CA  THR A   4      13.717   4.027  16.176  0.00  0.00    +0.176 C 
BRANCH   5   6
ATOM      6  C   THR A   4      13.035   5.357  15.884  0.00  0.00    +0.243 C 
ATOM      7  O   THR A   4      11.950   5.650  16.410  0.00  0.00    -0.273 OA
ATOM      8  N   VAL A   5      13.649   6.170  15.034  0.00  0.00    -0.297 N 
ATOM      9  H   VAL A   5      14.531   5.890  14.559  0.00  0.00    +0.150 HD
BRANCH   8  10
ATOM     10  CA  VAL A   5      13.042   7.463  14.795  0.00  0.00    +0.149 C 
BRANCH  10  11
ATOM     11  C   VAL A   5      11.738   7.335  13.999  0.00  0.00    +0.241 C 
ATOM     12  O   VAL A   5      10.776   8.041  14.261  0.00  0.00    -0.273 OA
ATOM     13  N   VAL A   6      11.704   6.421  13.037  0.00  0.00    -0.298 N 
ATOM     14  H   VAL A   6      12.530   5.814  12.862  0.00  0.00    +0.150 HD
BRANCH  13  15
ATOM     15  CA  VAL A   6      10.502   6.276  12.230  0.00  0.00    +0.137 C 
BRANCH  15  16
ATOM     16  CB  VAL A   6      10.726   5.382  11.006  0.00  0.00    +0.026 C 
ATOM     17  CG2 VAL A   6       9.405   5.041  10.330  0.00  0.00    +0.002 C 
ATOM     18  CG1 VAL A   6      11.674   6.093  10.012  0.00  0.00    +0.002 C 
ENDBRANCH  15  16
BRANCH  15  19
ATOM     19  C   VAL A   6       9.369   5.738  13.106  0.00  0.00    +0.227 C 
ATOM     20  O   VAL A   6       8.218   6.184  12.972  0.00  0.00    -0.286 OA
ENDBRANCH  15  19
ENDBRANCH  13  15
ENDBRANCH  10  11
BRANCH  10  21
ATOM     21  CB  VAL A   5      14.026   8.499  14.207  0.00  0.00    +0.027 C 
ATOM     22  CG2 VAL A   5      13.478   9.932  14.432  0.00  0.00    +0.002 C 
ATOM     23  CG1 VAL A   5      14.281   8.230  12.725  0.00  0.00    +0.002 C 
ENDBRANCH  10  21
ENDBRANCH   8  10
ENDBRANCH   5   6
BRANCH   5  24
ATOM     24  CB  THR A   4      14.887   4.216  17.175  0.00  0.00    +0.137 C 
ATOM     25  CG2 THR A   4      14.407   4.911  18.473  0.00  0.00    +0.034 C 
BRANCH  24  26
ATOM     26  OG1 THR A   4      15.416   2.926  17.527  0.00  0.00    -0.382 OA
ATOM     27  HG1 THR A   4      15.744   2.471  16.711  0.00  0.00    +0.210 HD
ENDBRANCH  24  26
ENDBRANCH   5  24
ENDBRANCH   2   5
BRANCH   1  28
ATOM     28  CA  LEU A   3      13.780   2.470  12.697  0.00  0.00    +0.149 C 
BRANCH  28  30
ATOM     29  C   VAL A   2      15.050   4.358  11.931  0.00  0.00    +0.241 C 
ATOM     30  N   LEU A   3      15.038   3.085  12.328  0.00  0.00    -0.297 N 
ATOM     31  H   LEU A   3      15.923   2.540  12.372  0.00  0.00    +0.150 HD
ATOM     32  O   VAL A   2      14.048   5.061  11.948  0.00  0.00    -0.273 OA
BRANCH  29  33
ATOM     33  CA  VAL A   2      16.377   4.926  11.436  0.00  0.00    +0.148 C 
BRANCH  33  36
ATOM     34  C   GLY A   1      17.466   5.072  13.600  0.00  0.00    +0.240 C 
ATOM     35  O   GLY A   1      16.579   5.824  14.051  0.00  0.00    -0.274 OA
ATOM     36  N   VAL A   2      17.433   4.584  12.371  0.00  0.00    -0.297 N 
ATOM     37  H   VAL A   2      18.187   3.936  12.065  0.00  0.00    +0.150 HD
BRANCH  34  38
ATOM     38  CA  GLY A   1      18.677   4.665  14.426  0.00  0.00    +0.169 C 
BRANCH  38  39
ATOM     39  N   GLY A   1      18.967   3.223  14.406  0.00  0.00    -0.236 NA
ATOM     40  H   GLY A   1      19.904   2.902  14.089  0.00  0.00    +0.142 HD
ENDBRANCH  38  39
ENDBRANCH  34  38
ENDBRANCH  33  36
BRANCH  33  41
ATOM     41  CB  VAL A   2      16.668   4.360  10.014  0.00  0.00    +0.027 C 
ATOM     42  CG2 VAL A   2      17.936   4.964   9.421  0.00  0.00    +0.002 C 
ATOM     43  CG1 VAL A   2      15.487   4.612   9.100  0.00  0.00    +0.002 C 
ENDBRANCH  33  41
ENDBRANCH  29  33
ENDBRANCH  28  30
BRANCH  28  44
ATOM     44  CB  LEU A   3      13.949   0.959  12.868  0.00  0.00    +0.029 C 
BRANCH  44  45
ATOM     45  CG  LEU A   3      14.254   0.081  11.636  0.00  0.00    +0.002 C 
ATOM     46  CD2 LEU A   3      13.665  -1.327  11.775  0.00  0.00    +0.000 C 
ATOM     47  CD1 LEU A   3      13.852   0.703  10.330  0.00  0.00    +0.000 C 
ENDBRANCH  44  45
ENDBRANCH  28  44
ENDBRANCH   1  28
TORSDOF 19
REMARK  Name = ../refined-set-2016/3iod/3iod_pocket.pdb
REMARK  251 active torsions:
REMARK  status: ('A' for Active; 'I' for Inactive)
REMARK    1  A    between atoms: _1  and  _3
REMARK    2  A    between atoms: _3  and  _4
REMARK    3  A    between atoms: _3  and  _6
REMARK    4  A    between atoms: _6  and  _7
REMARK    5  A    between atoms: _10  and  _12
REMARK    6  A    between atoms: _12  and  _13
REMARK    7  A    between atoms: _12  and  _15
REMARK    8  A    between atoms: _19  and  _20
REMARK    9  A    between atoms: _25  and  _27
REMARK   10  A    between atoms: _27  and  _28
REMARK   11  A    between atoms: _27  and  _30
REMARK   12  A    between atoms: _30  and  _31
REMARK   13  A    between atoms: _34  and  _36
REMARK   14  A    between atoms: _36  and  _37
REMARK   15  A    between atoms: _36  and  _39
REMARK   16  A    between atoms: _39  and  _40
REMARK   17  A    between atoms: _40  and  _41
REMARK   18  A    between atoms: _43  and  _45
REMARK   19  A    between atoms: _45  and  _46
REMARK   20  A    between atoms: _48  and  _50
REMARK   21  A    between atoms: _50  and  _51
REMARK   22  A    between atoms: _54  and  _56
REMARK   23  A    between atoms: _56  and  _57
REMARK   24  A    between atoms: _56  and  _59
REMARK   25  A    between atoms: _59  and  _60
REMARK   26  A    between atoms: _63  and  _65
REMARK   27  A    between atoms: _65  and  _66
REMARK   28  A    between atoms: _65  and  _68
REMARK   29  A    between atoms: _68  and  _69
REMARK   30  A    between atoms: _74  and  _76
REMARK   31  A    between atoms: _76  and  _77
REMARK   32  A    between atoms: _76  and  _79
REMARK   33  A    between atoms: _79  and  _80
REMARK   34  A    between atoms: _80  and  _81
REMARK   35  A    between atoms: _84  and  _86
REMARK   36  A    between atoms: _86  and  _87
REMARK   37  A    between atoms: _89  and  _91
REMARK   38  A    between atoms: _91  and  _92
REMARK   39  A    between atoms: _91  and  _94
REMARK   40  A    between atoms: _94  and  _95
REMARK   41  A    between atoms: _100  and  _102
REMARK   42  A    between atoms: _102  and  _103
REMARK   43  A    between atoms: _102  and  _105
REMARK   44  A    between atoms: _105  and  _106
REMARK   45  A    between atoms: _109  and  _111
REMARK   46  A    between atoms: _111  and  _112
REMARK   47  A    between atoms: _115  and  _117
REMARK   48  A    between atoms: _117  and  _118
REMARK   49  A    between atoms: _117  and  _120
REMARK   50  A    between atoms: _120  and  _121
REMARK   51  A    between atoms: _124  and  _126
REMARK   52  A    between atoms: _126  and  _127
REMARK   53  A    between atoms: _126  and  _129
REMARK   54  A    between atoms: _132  and  _134
REMARK   55  A    between atoms: _134  and  _135
REMARK   56  A    between atoms: _134  and  _137
REMARK   57  A    between atoms: _140  and  _142
REMARK   58  A    between atoms: _142  and  _143
REMARK   59  A    between atoms: _142  and  _145
REMARK   60  A    between atoms: _145  and  _146
REMARK   61  A    between atoms: _148  and  _150
REMARK   62  A    between atoms: _150  and  _151
REMARK   63  A    between atoms: _150  and  _153
REMARK   64  A    between atoms: _153  and  _154
REMARK   65  A    between atoms: _157  and  _159
REMARK   66  A    between atoms: _159  and  _160
REMARK   67  A    between atoms: _159  and  _162
REMARK   68  A    between atoms: _162  and  _163
REMARK   69  A    between atoms: _169  and  _171
REMARK   70  A    between atoms: _171  and  _172
REMARK   71  A    between atoms: _171  and  _174
REMARK   72  A    between atoms: _177  and  _179
REMARK   73  A    between atoms: _179  and  _180
REMARK   74  A    between atoms: _179  and  _182
REMARK   75  A    between atoms: _182  and  _183
REMARK   76  A    between atoms: _189  and  _190
REMARK   77  A    between atoms: _195  and  _197
REMARK   78  A    between atoms: _197  and  _198
REMARK   79  A    between atoms: _197  and  _200
REMARK   80  A    between atoms: _200  and  _201
REMARK   81  A    between atoms: _201  and  _202
REMARK   82  A    between atoms: _204  and  _206
REMARK   83  A    between atoms: _206  and  _207
REMARK   84  A    between atoms: _206  and  _209
REMARK   85  A    between atoms: _209  and  _210
REMARK   86  A    between atoms: _210  and  _211
REMARK   87  A    between atoms: _216  and  _218
REMARK   88  A    between atoms: _218  and  _219
REMARK   89  A    between atoms: _218  and  _221
REMARK   90  A    between atoms: _221  and  _222
REMARK   91  A    between atoms: _228  and  _230
REMARK   92  A    between atoms: _230  and  _231
REMARK   93  A    between atoms: _230  and  _233
REMARK   94  A    between atoms: _233  and  _234
REMARK   95  A    between atoms: _239  and  _240
REMARK   96  A    between atoms: _242  and  _244
REMARK   97  A    between atoms: _244  and  _245
REMARK   98  A    between atoms: _244  and  _247
REMARK   99  A    between atoms: _247  and  _248
REMARK  100  A    between atoms: _255  and  _256
REMARK  101  A    between atoms: _261  and  _263
REMARK  102  A    between atoms: _263  and  _264
REMARK  103  A    between atoms: _263  and  _266
REMARK  104  A    between atoms: _266  and  _267
REMARK  105  A    between atoms: _267  and  _268
REMARK  106  A    between atoms: _270  and  _272
REMARK  107  A    between atoms: _272  and  _273
REMARK  108  A    between atoms: _272  and  _275
REMARK  109  A    between atoms: _275  and  _276
REMARK  110  A    between atoms: _281  and  _282
REMARK  111  A    between atoms: _284  and  _286
REMARK  112  A    between atoms: _286  and  _287
REMARK  113  A    between atoms: _286  and  _289
REMARK  114  A    between atoms: _289  and  _290
REMARK  115  A    between atoms: _295  and  _297
REMARK  116  A    between atoms: _297  and  _298
REMARK  117  A    between atoms: _297  and  _300
REMARK  118  A    between atoms: _300  and  _301
REMARK  119  A    between atoms: _307  and  _309
REMARK  120  A    between atoms: _309  and  _310
REMARK  121  A    between atoms: _312  and  _314
REMARK  122  A    between atoms: _314  and  _315
REMARK  123  A    between atoms: _314  and  _317
REMARK  124  A    between atoms: _320  and  _322
REMARK  125  A    between atoms: _322  and  _323
REMARK  126  A    between atoms: _322  and  _325
REMARK  127  A    between atoms: _325  and  _326
REMARK  128  A    between atoms: _329  and  _331
REMARK  129  A    between atoms: _331  and  _332
REMARK  130  A    between atoms: _331  and  _334
REMARK  131  A    between atoms: _334  and  _335
REMARK  132  A    between atoms: _338  and  _340
REMARK  133  A    between atoms: _340  and  _341
REMARK  134  A    between atoms: _340  and  _343
REMARK  135  A    between atoms: _346  and  _348
REMARK  136  A    between atoms: _348  and  _349
REMARK  137  A    between atoms: _348  and  _351
REMARK  138  A    between atoms: _354  and  _356
REMARK  139  A    between atoms: _356  and  _357
REMARK  140  A    between atoms: _356  and  _359
REMARK  141  A    between atoms: _359  and  _360
REMARK  142  A    between atoms: _363  and  _365
REMARK  143  A    between atoms: _365  and  _366
REMARK  144  A    between atoms: _365  and  _368
REMARK  145  A    between atoms: _368  and  _369
REMARK  146  A    between atoms: _375  and  _377
REMARK  147  A    between atoms: _377  and  _378
REMARK  148  A    between atoms: _377  and  _380
REMARK  149  A    between atoms: _380  and  _381
REMARK  150  A    between atoms: _387  and  _389
REMARK  151  A    between atoms: _389  and  _390
REMARK  152  A    between atoms: _392  and  _394
REMARK  153  A    between atoms: _394  and  _395
REMARK  154  A    between atoms: _394  and  _397
REMARK  155  A    between atoms: _397  and  _398
REMARK  156  A    between atoms: _398  and  _399
REMARK  157  A    between atoms: _402  and  _404
REMARK  158  A    between atoms: _404  and  _405
REMARK  159  A    between atoms: _404  and  _407
REMARK  160  A    between atoms: _407  and  _408
REMARK  161  A    between atoms: _408  and  _409
REMARK  162  A    between atoms: _409  and  _410
REMARK  163  A    between atoms: _410  and  _411
REMARK  164  A    between atoms: _415  and  _417
REMARK  165  A    between atoms: _417  and  _418
REMARK  166  A    between atoms: _417  and  _420
REMARK  167  A    between atoms: _420  and  _421
REMARK  168  A    between atoms: _424  and  _426
REMARK  169  A    between atoms: _426  and  _427
REMARK  170  A    between atoms: _426  and  _429
REMARK  171  A    between atoms: _429  and  _430
REMARK  172  A    between atoms: _435  and  _436
REMARK  173  A    between atoms: _438  and  _440
REMARK  174  A    between atoms: _440  and  _441
REMARK  175  A    between atoms: _440  and  _443
REMARK  176  A    between atoms: _443  and  _444
REMARK  177  A    between atoms: _444  and  _445
REMARK  178  A    between atoms: _450  and  _452
REMARK  179  A    between atoms: _452  and  _453
REMARK  180  A    between atoms: _452  and  _455
REMARK  181  A    between atoms: _455  and  _456
REMARK  182  A    between atoms: _459  and  _461
REMARK  183  A    between atoms: _461  and  _462
REMARK  184  A    between atoms: _461  and  _464
REMARK  185  A    between atoms: _464  and  _465
REMARK  186  A    between atoms: _468  and  _470
REMARK  187  A    between atoms: _470  and  _471
REMARK  188  A    between atoms: _470  and  _473
REMARK  189  A    between atoms: _476  and  _478
REMARK  190  A    between atoms: _478  and  _479
REMARK  191  A    between atoms: _478  and  _481
REMARK  192  A    between atoms: _485  and  _486
REMARK  193  A    between atoms: _491  and  _493
REMARK  194  A    between atoms: _493  and  _494
REMARK  195  A    between atoms: _493  and  _496
REMARK  196  A    between atoms: _496  and  _497
REMARK  197  A    between atoms: _500  and  _502
REMARK  198  A    between atoms: _502  and  _503
REMARK  199  A    between atoms: _502  and  _505
REMARK  200  A    between atoms: _508  and  _510
REMARK  201  A    between atoms: _510  and  _511
REMARK  202  A    between atoms: _510  and  _513
REMARK  203  A    between atoms: _513  and  _514
REMARK  204  A    between atoms: _514  and  _515
REMARK  205  A    between atoms: _515  and  _516
REMARK  206  A    between atoms: _525  and  _527
REMARK  207  A    between atoms: _527  and  _528
REMARK  208  A    between atoms: _527  and  _530
REMARK  209  A    between atoms: _530  and  _531
REMARK  210  A    between atoms: _531  and  _532
REMARK  211  A    between atoms: _535  and  _537
REMARK  212  A    between atoms: _537  and  _538
REMARK  213  A    between atoms: _537  and  _540
REMARK  214  A    between atoms: _540  and  _541
REMARK  215  A    between atoms: _544  and  _546
REMARK  216  A    between atoms: _546  and  _547
REMARK  217  A    between atoms: _550  and  _552
REMARK  218  A    between atoms: _552  and  _553
REMARK  219  A    between atoms: _552  and  _555
REMARK  220  A    between atoms: _555  and  _556
REMARK  221  A    between atoms: _556  and  _557
REMARK  222  A    between atoms: _559  and  _561
REMARK  223  A    between atoms: _561  and  _562
REMARK  224  A    between atoms: _561  and  _564
REMARK  225  A    between atoms: _564  and  _565
REMARK  226  A    between atoms: _567  and  _569
REMARK  227  A    between atoms: _569  and  _570
REMARK  228  A    between atoms: _569  and  _572
REMARK  229  A    between atoms: _572  and  _573
REMARK  230  A    between atoms: _575  and  _577
REMARK  231  A    between atoms: _577  and  _578
REMARK  232  A    between atoms: _577  and  _580
REMARK  233  A    between atoms: _580  and  _581
REMARK  234  A    between atoms: _581  and  _582
REMARK  235  A    between atoms: _582  and  _583
REMARK  236  A    between atoms: _592  and  _594
REMARK  237  A    between atoms: _594  and  _595
REMARK  238  A    between atoms: _594  and  _597
REMARK  239  A    between atoms: _597  and  _598
REMARK  240  A    between atoms: _603  and  _605
REMARK  241  A    between atoms: _605  and  _606
REMARK  242  A    between atoms: _605  and  _608
REMARK  243  A    between atoms: _608  and  _609
REMARK  244  A    between atoms: _612  and  _614
REMARK  245  A    between atoms: _614  and  _615
REMARK  246  A    between atoms: _614  and  _617
REMARK  247  A    between atoms: _617  and  _618
REMARK  248  A    between atoms: _621  and  _623
REMARK  249  A    between atoms: _623  and  _624
REMARK  250  A    between atoms: _623  and  _626
REMARK  251  A    between atoms: _626  and  _627
REMARK                            x       y       z     vdW  Elec       q    Type
REMARK                         _______ _______ _______ _____ _____    ______ ____
ROOT
ATOM      1  CA  LEU A   1       7.293   9.632  14.129  0.00  0.00    +0.133 C 
ENDROOT
BRANCH   1   2
ATOM      2  N   LEU A   1       8.045   8.744  15.033  0.00  0.00    -0.239 NA
ATOM      3  H   LEU A   1       8.951   8.349  14.710  0.00  0.00    +0.142 HD
ENDBRANCH   1   2
BRANCH   1   4
ATOM      4  C   LEU A   1       5.936   9.046  13.827  0.00  0.00    +0.224 C 
ATOM      5  O   LEU A   1       4.922   9.762  13.848  0.00  0.00    -0.287 OA
ENDBRANCH   1   4
BRANCH   1   6
ATOM      6  CB  LEU A   1       8.075   9.883  12.826  0.00  0.00    +0.025 C 
BRANCH   6   7
ATOM      7  CG  LEU A   1       9.357  10.713  13.024  0.00  0.00    +0.002 C 
ATOM      8  CD2 LEU A   1       8.988  12.173  13.388  0.00  0.00    +0.000 C 
ATOM      9  CD1 LEU A   1      10.112  10.689  11.743  0.00  0.00    +0.000 C 
ENDBRANCH   6   7
ENDBRANCH   1   6
TORSDOF 4
REMARK  Name = ../refined-set-2016/3iod/3iod_pocket.pdb
REMARK  251 active torsions:
REMARK  status: ('A' for Active; 'I' for Inactive)
REMARK    1  A    between atoms: _1  and  _3
REMARK    2  A    between atoms: _3  and  _4
REMARK    3  A    between atoms: _3  and  _6
REMARK    4  A    between atoms: _6  and  _7
REMARK    5  A    between atoms: _10  and  _12
REMARK    6  A    between atoms: _12  and  _13
REMARK    7  A    between atoms: _12  and  _15
REMARK    8  A    between atoms: _19  and  _20
REMARK    9  A    between atoms: _25  and  _27
REMARK   10  A    between atoms: _27  and  _28
REMARK   11  A    between atoms: _27  and  _30
REMARK   12  A    between atoms: _30  and  _31
REMARK   13  A    between atoms: _34  and  _36
REMARK   14  A    between atoms: _36  and  _37
REMARK   15  A    between atoms: _36  and  _39
REMARK   16  A    between atoms: _39  and  _40
REMARK   17  A    between atoms: _40  and  _41
REMARK   18  A    between atoms: _43  and  _45
REMARK   19  A    between atoms: _45  and  _46
REMARK   20  A    between atoms: _48  and  _50
REMARK   21  A    between atoms: _50  and  _51
REMARK   22  A    between atoms: _54  and  _56
REMARK   23  A    between atoms: _56  and  _57
REMARK   24  A    between atoms: _56  and  _59
REMARK   25  A    between atoms: _59  and  _60
REMARK   26  A    between atoms: _63  and  _65
REMARK   27  A    between atoms: _65  and  _66
REMARK   28  A    between atoms: _65  and  _68
REMARK   29  A    between atoms: _68  and  _69
REMARK   30  A    between atoms: _74  and  _76
REMARK   31  A    between atoms: _76  and  _77
REMARK   32  A    between atoms: _76  and  _79
REMARK   33  A    between atoms: _79  and  _80
REMARK   34  A    between atoms: _80  and  _81
REMARK   35  A    between atoms: _84  and  _86
REMARK   36  A    between atoms: _86  and  _87
REMARK   37  A    between atoms: _89  and  _91
REMARK   38  A    between atoms: _91  and  _92
REMARK   39  A    between atoms: _91  and  _94
REMARK   40  A    between atoms: _94  and  _95
REMARK   41  A    between atoms: _100  and  _102
REMARK   42  A    between atoms: _102  and  _103
REMARK   43  A    between atoms: _102  and  _105
REMARK   44  A    between atoms: _105  and  _106
REMARK   45  A    between atoms: _109  and  _111
REMARK   46  A    between atoms: _111  and  _112
REMARK   47  A    between atoms: _115  and  _117
REMARK   48  A    between atoms: _117  and  _118
REMARK   49  A    between atoms: _117  and  _120
REMARK   50  A    between atoms: _120  and  _121
REMARK   51  A    between atoms: _124  and  _126
REMARK   52  A    between atoms: _126  and  _127
REMARK   53  A    between atoms: _126  and  _129
REMARK   54  A    between atoms: _132  and  _134
REMARK   55  A    between atoms: _134  and  _135
REMARK   56  A    between atoms: _134  and  _137
REMARK   57  A    between atoms: _140  and  _142
REMARK   58  A    between atoms: _142  and  _143
REMARK   59  A    between atoms: _142  and  _145
REMARK   60  A    between atoms: _145  and  _146
REMARK   61  A    between atoms: _148  and  _150
REMARK   62  A    between atoms: _150  and  _151
REMARK   63  A    between atoms: _150  and  _153
REMARK   64  A    between atoms: _153  and  _154
REMARK   65  A    between atoms: _157  and  _159
REMARK   66  A    between atoms: _159  and  _160
REMARK   67  A    between atoms: _159  and  _162
REMARK   68  A    between atoms: _162  and  _163
REMARK   69  A    between atoms: _169  and  _171
REMARK   70  A    between atoms: _171  and  _172
REMARK   71  A    between atoms: _171  and  _174
REMARK   72  A    between atoms: _177  and  _179
REMARK   73  A    between atoms: _179  and  _180
REMARK   74  A    between atoms: _179  and  _182
REMARK   75  A    between atoms: _182  and  _183
REMARK   76  A    between atoms: _189  and  _190
REMARK   77  A    between atoms: _195  and  _197
REMARK   78  A    between atoms: _197  and  _198
REMARK   79  A    between atoms: _197  and  _200
REMARK   80  A    between atoms: _200  and  _201
REMARK   81  A    between atoms: _201  and  _202
REMARK   82  A    between atoms: _204  and  _206
REMARK   83  A    between atoms: _206  and  _207
REMARK   84  A    between atoms: _206  and  _209
REMARK   85  A    between atoms: _209  and  _210
REMARK   86  A    between atoms: _210  and  _211
REMARK   87  A    between atoms: _216  and  _218
REMARK   88  A    between atoms: _218  and  _219
REMARK   89  A    between atoms: _218  and  _221
REMARK   90  A    between atoms: _221  and  _222
REMARK   91  A    between atoms: _228  and  _230
REMARK   92  A    between atoms: _230  and  _231
REMARK   93  A    between atoms: _230  and  _233
REMARK   94  A    between atoms: _233  and  _234
REMARK   95  A    between atoms: _239  and  _240
REMARK   96  A    between atoms: _242  and  _244
REMARK   97  A    between atoms: _244  and  _245
REMARK   98  A    between atoms: _244  and  _247
REMARK   99  A    between atoms: _247  and  _248
REMARK  100  A    between atoms: _255  and  _256
REMARK  101  A    between atoms: _261  and  _263
REMARK  102  A    between atoms: _263  and  _264
REMARK  103  A    between atoms: _263  and  _266
REMARK  104  A    between atoms: _266  and  _267
REMARK  105  A    between atoms: _267  and  _268
REMARK  106  A    between atoms: _270  and  _272
REMARK  107  A    between atoms: _272  and  _273
REMARK  108  A    between atoms: _272  and  _275
REMARK  109  A    between atoms: _275  and  _276
REMARK  110  A    between atoms: _281  and  _282
REMARK  111  A    between atoms: _284  and  _286
REMARK  112  A    between atoms: _286  and  _287
REMARK  113  A    between atoms: _286  and  _289
REMARK  114  A    between atoms: _289  and  _290
REMARK  115  A    between atoms: _295  and  _297
REMARK  116  A    between atoms: _297  and  _298
REMARK  117  A    between atoms: _297  and  _300
REMARK  118  A    between atoms: _300  and  _301
REMARK  119  A    between atoms: _307  and  _309
REMARK  120  A    between atoms: _309  and  _310
REMARK  121  A    between atoms: _312  and  _314
REMARK  122  A    between atoms: _314  and  _315
REMARK  123  A    between atoms: _314  and  _317
REMARK  124  A    between atoms: _320  and  _322
REMARK  125  A    between atoms: _322  and  _323
REMARK  126  A    between atoms: _322  and  _325
REMARK  127  A    between atoms: _325  and  _326
REMARK  128  A    between atoms: _329  and  _331
REMARK  129  A    between atoms: _331  and  _332
REMARK  130  A    between atoms: _331  and  _334
REMARK  131  A    between atoms: _334  and  _335
REMARK  132  A    between atoms: _338  and  _340
REMARK  133  A    between atoms: _340  and  _341
REMARK  134  A    between atoms: _340  and  _343
REMARK  135  A    between atoms: _346  and  _348
REMARK  136  A    between atoms: _348  and  _349
REMARK  137  A    between atoms: _348  and  _351
REMARK  138  A    between atoms: _354  and  _356
REMARK  139  A    between atoms: _356  and  _357
REMARK  140  A    between atoms: _356  and  _359
REMARK  141  A    between atoms: _359  and  _360
REMARK  142  A    between atoms: _363  and  _365
REMARK  143  A    between atoms: _365  and  _366
REMARK  144  A    between atoms: _365  and  _368
REMARK  145  A    between atoms: _368  and  _369
REMARK  146  A    between atoms: _375  and  _377
REMARK  147  A    between atoms: _377  and  _378
REMARK  148  A    between atoms: _377  and  _380
REMARK  149  A    between atoms: _380  and  _381
REMARK  150  A    between atoms: _387  and  _389
REMARK  151  A    between atoms: _389  and  _390
REMARK  152  A    between atoms: _392  and  _394
REMARK  153  A    between atoms: _394  and  _395
REMARK  154  A    between atoms: _394  and  _397
REMARK  155  A    between atoms: _397  and  _398
REMARK  156  A    between atoms: _398  and  _399
REMARK  157  A    between atoms: _402  and  _404
REMARK  158  A    between atoms: _404  and  _405
REMARK  159  A    between atoms: _404  and  _407
REMARK  160  A    between atoms: _407  and  _408
REMARK  161  A    between atoms: _408  and  _409
REMARK  162  A    between atoms: _409  and  _410
REMARK  163  A    between atoms: _410  and  _411
REMARK  164  A    between atoms: _415  and  _417
REMARK  165  A    between atoms: _417  and  _418
REMARK  166  A    between atoms: _417  and  _420
REMARK  167  A    between atoms: _420  and  _421
REMARK  168  A    between atoms: _424  and  _426
REMARK  169  A    between atoms: _426  and  _427
REMARK  170  A    between atoms: _426  and  _429
REMARK  171  A    between atoms: _429  and  _430
REMARK  172  A    between atoms: _435  and  _436
REMARK  173  A    between atoms: _438  and  _440
REMARK  174  A    between atoms: _440  and  _441
REMARK  175  A    between atoms: _440  and  _443
REMARK  176  A    between atoms: _443  and  _444
REMARK  177  A    between atoms: _444  and  _445
REMARK  178  A    between atoms: _450  and  _452
REMARK  179  A    between atoms: _452  and  _453
REMARK  180  A    between atoms: _452  and  _455
REMARK  181  A    between atoms: _455  and  _456
REMARK  182  A    between atoms: _459  and  _461
REMARK  183  A    between atoms: _461  and  _462
REMARK  184  A    between atoms: _461  and  _464
REMARK  185  A    between atoms: _464  and  _465
REMARK  186  A    between atoms: _468  and  _470
REMARK  187  A    between atoms: _470  and  _471
REMARK  188  A    between atoms: _470  and  _473
REMARK  189  A    between atoms: _476  and  _478
REMARK  190  A    between atoms: _478  and  _479
REMARK  191  A    between atoms: _478  and  _481
REMARK  192  A    between atoms: _485  and  _486
REMARK  193  A    between atoms: _491  and  _493
REMARK  194  A    between atoms: _493  and  _494
REMARK  195  A    between atoms: _493  and  _496
REMARK  196  A    between atoms: _496  and  _497
REMARK  197  A    between atoms: _500  and  _502
REMARK  198  A    between atoms: _502  and  _503
REMARK  199  A    between atoms: _502  and  _505
REMARK  200  A    between atoms: _508  and  _510
REMARK  201  A    between atoms: _510  and  _511
REMARK  202  A    between atoms: _510  and  _513
REMARK  203  A    between atoms: _513  and  _514
REMARK  204  A    between atoms: _514  and  _515
REMARK  205  A    between atoms: _515  and  _516
REMARK  206  A    between atoms: _525  and  _527
REMARK  207  A    between atoms: _527  and  _528
REMARK  208  A    between atoms: _527  and  _530
REMARK  209  A    between atoms: _530  and  _531
REMARK  210  A    between atoms: _531  and  _532
REMARK  211  A    between atoms: _535  and  _537
REMARK  212  A    between atoms: _537  and  _538
REMARK  213  A    between atoms: _537  and  _540
REMARK  214  A    between atoms: _540  and  _541
REMARK  215  A    between atoms: _544  and  _546
REMARK  216  A    between atoms: _546  and  _547
REMARK  217  A    between atoms: _550  and  _552
REMARK  218  A    between atoms: _552  and  _553
REMARK  219  A    between atoms: _552  and  _555
REMARK  220  A    between atoms: _555  and  _556
REMARK  221  A    between atoms: _556  and  _557
REMARK  222  A    between atoms: _559  and  _561
REMARK  223  A    between atoms: _561  and  _562
REMARK  224  A    between atoms: _561  and  _564
REMARK  225  A    between atoms: _564  and  _565
REMARK  226  A    between atoms: _567  and  _569
REMARK  227  A    between atoms: _569  and  _570
REMARK  228  A    between atoms: _569  and  _572
REMARK  229  A    between atoms: _572  and  _573
REMARK  230  A    between atoms: _575  and  _577
REMARK  231  A    between atoms: _577  and  _578
REMARK  232  A    between atoms: _577  and  _580
REMARK  233  A    between atoms: _580  and  _581
REMARK  234  A    between atoms: _581  and  _582
REMARK  235  A    between atoms: _582  and  _583
REMARK  236  A    between atoms: _592  and  _594
REMARK  237  A    between atoms: _594  and  _595
REMARK  238  A    between atoms: _594  and  _597
REMARK  239  A    between atoms: _597  and  _598
REMARK  240  A    between atoms: _603  and  _605
REMARK  241  A    between atoms: _605  and  _606
REMARK  242  A    between atoms: _605  and  _608
REMARK  243  A    between atoms: _608  and  _609
REMARK  244  A    between atoms: _612  and  _614
REMARK  245  A    between atoms: _614  and  _615
REMARK  246  A    between atoms: _614  and  _617
REMARK  247  A    between atoms: _617  and  _618
REMARK  248  A    between atoms: _621  and  _623
REMARK  249  A    between atoms: _623  and  _624
REMARK  250  A    between atoms: _623  and  _626
REMARK  251  A    between atoms: _626  and  _627
REMARK                            x       y       z     vdW  Elec       q    Type
REMARK                         _______ _______ _______ _____ _____    ______ ____
ROOT
ATOM      1  C   GLU A   4      14.348   3.560  -3.464  0.00  0.00    +0.241 C 
ATOM      2  O   GLU A   4      15.060   2.575  -3.431  0.00  0.00    -0.273 OA
ATOM      3  N   LYS A   5      14.835   4.794  -3.604  0.00  0.00    -0.297 N 
ATOM      4  H   LYS A   5      14.182   5.601  -3.666  0.00  0.00    +0.150 HD
ENDROOT
BRANCH   3   5
ATOM      5  CA  LYS A   5      16.261   5.020  -3.671  0.00  0.00    +0.149 C 
BRANCH   5   6
ATOM      6  C   LYS A   5      16.982   4.341  -2.493  0.00  0.00    +0.241 C 
ATOM      7  N   ASP A   6      16.403   4.475  -1.304  0.00  0.00    -0.297 N 
ATOM      8  H   ASP A   6      15.542   5.054  -1.226  0.00  0.00    +0.150 HD
ATOM      9  O   LYS A   5      17.997   3.700  -2.666  0.00  0.00    -0.273 OA
BRANCH   7  10
ATOM     10  CA  ASP A   6      16.931   3.842  -0.116  0.00  0.00    +0.160 C 
BRANCH  10  11
ATOM     11  C   ASP A   6      16.165   2.566   0.124  0.00  0.00    +0.241 C 
ATOM     12  O   ASP A   6      15.341   2.464   1.040  0.00  0.00    -0.273 OA
ATOM     13  N   TYR A   7      16.446   1.588  -0.741  0.00  0.00    -0.298 N 
ATOM     14  H   TYR A   7      17.284   1.676  -1.351  0.00  0.00    +0.150 HD
BRANCH  13  15
ATOM     15  CA  TYR A   7      15.608   0.401  -0.852  0.00  0.00    +0.141 C 
BRANCH  15  16
ATOM     16  C   TYR A   7      15.701  -0.475   0.383  0.00  0.00    +0.227 C 
ATOM     17  O   TYR A   7      14.680  -1.009   0.859  0.00  0.00    -0.286 OA
ENDBRANCH  15  16
BRANCH  15  18
ATOM     18  CB  TYR A   7      15.972  -0.373  -2.125  0.00  0.00    +0.054 C 
BRANCH  18  19
ATOM     19  CG  TYR A   7      14.999  -1.466  -2.455  0.00  0.00    -0.020 A 
ATOM     20  CD2 TYR A   7      15.257  -2.771  -2.052  0.00  0.00    -0.001 A 
ATOM     21  CE2 TYR A   7      14.371  -3.793  -2.332  0.00  0.00    +0.036 A 
ATOM     22  CZ  TYR A   7      13.211  -3.518  -3.006  0.00  0.00    +0.134 A 
ATOM     23  CE1 TYR A   7      12.903  -2.222  -3.412  0.00  0.00    +0.036 A 
ATOM     24  CD1 TYR A   7      13.807  -1.192  -3.130  0.00  0.00    -0.001 A 
BRANCH  22  25
ATOM     25  OH  TYR A   7      12.341  -4.544  -3.262  0.00  0.00    -0.506 OA
ATOM     26  HH  TYR A   7      12.046  -4.946  -2.407  0.00  0.00    +0.292 HD
ENDBRANCH  22  25
ENDBRANCH  18  19
ENDBRANCH  15  18
ENDBRANCH  13  15
ENDBRANCH  10  11
BRANCH  10  27
ATOM     27  CB  ASP A   6      16.824   4.831   1.035  0.00  0.00    +0.143 C 
BRANCH  27  28
ATOM     28  CG  ASP A   6      17.694   6.048   0.798  0.00  0.00    +0.367 C 
ATOM     29  OD2 ASP A   6      18.916   5.925   1.011  0.00  0.00    -0.246 OA
ATOM     30  OD1 ASP A   6      17.171   7.088   0.337  0.00  0.00    -0.246 OA
ENDBRANCH  27  28
ENDBRANCH  10  27
ENDBRANCH   7  10
ENDBRANCH   5   6
BRANCH   5  31
ATOM     31  CB  LYS A   5      16.587   6.510  -3.720  0.00  0.00    +0.029 C 
BRANCH  31  32
ATOM     32  CG  LYS A   5      18.085   6.725  -3.935  0.00  0.00    +0.000 C 
BRANCH  32  33
ATOM     33  CD  LYS A   5      18.430   8.169  -3.903  0.00  0.00    -0.024 C 
BRANCH  33  34
ATOM     34  CE  LYS A   5      19.578   8.402  -2.974  0.00  0.00    -0.086 C 
BRANCH  34  35
ATOM     35  NZ  LYS A   5      19.105   8.477  -1.553  0.00  0.00    +0.380 N 
ATOM     36  HZ1 LYS A   5      19.919   8.639  -0.926  0.00  0.00    -0.089 HD
ATOM     37  HZ2 LYS A   5      18.641   7.583  -1.296  0.00  0.00    -0.089 HD
ATOM     38  HZ3 LYS A   5      18.429   9.261  -1.455  0.00  0.00    -0.089 HD
ENDBRANCH  34  35
ENDBRANCH  33  34
ENDBRANCH  32  33
ENDBRANCH  31  32
ENDBRANCH   5  31
ENDBRANCH   3   5
BRANCH   1  39
ATOM     39  CA  GLU A   4      12.828   3.384  -3.385  0.00  0.00    +0.149 C 
BRANCH  39  42
ATOM     40  C   GLY A   3      12.226   5.146  -1.844  0.00  0.00    +0.243 C 
ATOM     41  O   GLY A   3      12.833   4.575  -0.937  0.00  0.00    -0.273 OA
ATOM     42  N   GLU A   4      12.118   4.621  -3.056  0.00  0.00    -0.297 N 
ATOM     43  H   GLU A   4      11.528   5.088  -3.774  0.00  0.00    +0.150 HD
BRANCH  40  44
ATOM     44  CA  GLY A   3      11.599   6.508  -1.638  0.00  0.00    +0.176 C 
BRANCH  44  46
ATOM     45  C   PHE A   2       9.902   6.139   0.057  0.00  0.00    +0.241 C 
ATOM     46  N   GLY A   3      11.071   6.678  -0.284  0.00  0.00    -0.295 N 
ATOM     47  H   GLY A   3      11.612   7.223   0.417  0.00  0.00    +0.150 HD
ATOM     48  O   PHE A   2       9.213   5.473  -0.728  0.00  0.00    -0.273 OA
BRANCH  45  49
ATOM     49  CA  PHE A   2       9.446   6.354   1.496  0.00  0.00    +0.153 C 
BRANCH  49  52
ATOM     50  C   PHE A   1       7.373   7.387   2.264  0.00  0.00    +0.239 C 
ATOM     51  O   PHE A   1       7.944   8.277   2.906  0.00  0.00    -0.274 OA
ATOM     52  N   PHE A   2       8.002   6.439   1.578  0.00  0.00    -0.297 N 
ATOM     53  H   PHE A   2       7.433   5.727   1.078  0.00  0.00    +0.150 HD
BRANCH  50  54
ATOM     54  CA  PHE A   1       5.862   7.351   2.181  0.00  0.00    +0.149 C 
BRANCH  54  55
ATOM     55  N   PHE A   1       5.276   7.366   3.519  0.00  0.00    -0.238 NA
ATOM     56  H   PHE A   1       5.449   8.189   4.131  0.00  0.00    +0.142 HD
ENDBRANCH  54  55
BRANCH  54  57
ATOM     57  CB  PHE A   1       5.363   8.581   1.395  0.00  0.00    +0.053 C 
BRANCH  57  58
ATOM     58  CG  PHE A   1       3.911   8.512   1.088  0.00  0.00    -0.020 A 
ATOM     59  CD2 PHE A   1       2.960   8.831   2.061  0.00  0.00    -0.004 A 
ATOM     60  CE2 PHE A   1       1.580   8.711   1.787  0.00  0.00    -0.000 A 
ATOM     61  CZ  PHE A   1       1.165   8.284   0.548  0.00  0.00    -0.000 A 
ATOM     62  CE1 PHE A   1       2.103   7.977  -0.431  0.00  0.00    -0.000 A 
ATOM     63  CD1 PHE A   1       3.481   8.066  -0.146  0.00  0.00    -0.004 A 
ENDBRANCH  57  58
ENDBRANCH  54  57
ENDBRANCH  50  54
ENDBRANCH  49  52
BRANCH  49  64
ATOM     64  CB  PHE A   2       9.949   5.195   2.355  0.00  0.00    +0.055 C 
BRANCH  64  65
ATOM     65  CG  PHE A   2       9.901   5.483   3.827  0.00  0.00    -0.020 A 
ATOM     66  CD2 PHE A   2       8.815   5.083   4.592  0.00  0.00    -0.004 A 
ATOM     67  CE2 PHE A   2       8.754   5.370   5.936  0.00  0.00    -0.000 A 
ATOM     68  CZ  PHE A   2       9.779   6.027   6.548  0.00  0.00    -0.000 A 
ATOM     69  CE1 PHE A   2      10.890   6.424   5.820  0.00  0.00    -0.000 A 
ATOM     70  CD1 PHE A   2      10.944   6.156   4.448  0.00  0.00    -0.004 A 
ENDBRANCH  64  65
ENDBRANCH  49  64
ENDBRANCH  45  49
ENDBRANCH  44  46
ENDBRANCH  40  44
ENDBRANCH  39  42
BRANCH  39  71
ATOM     71  CB  GLU A   4      12.332   2.806  -4.697  0.00  0.00    +0.041 C 
BRANCH  71  72
ATOM     72  CG  GLU A   4      10.914   2.261  -4.613  0.00  0.00    +0.116 C 
BRANCH  72  73
ATOM     73  CD  GLU A   4      10.452   1.598  -5.902  0.00  0.00    +0.365 C 
ATOM     74  OE2 GLU A   4       9.328   1.094  -5.892  0.00  0.00    -0.246 OA
ATOM     75  OE1 GLU A   4      11.200   1.595  -6.906  0.00  0.00    -0.246 OA
ENDBRANCH  72  73
ENDBRANCH  71  72
ENDBRANCH  39  71
ENDBRANCH   1  39
TORSDOF 31
REMARK  Name = ../refined-set-2016/3iod/3iod_pocket.pdb
REMARK  251 active torsions:
REMARK  status: ('A' for Active; 'I' for Inactive)
REMARK    1  A    between atoms: _1  and  _3
REMARK    2  A    between atoms: _3  and  _4
REMARK    3  A    between atoms: _3  and  _6
REMARK    4  A    between atoms: _6  and  _7
REMARK    5  A    between atoms: _10  and  _12
REMARK    6  A    between atoms: _12  and  _13
REMARK    7  A    between atoms: _12  and  _15
REMARK    8  A    between atoms: _19  and  _20
REMARK    9  A    between atoms: _25  and  _27
REMARK   10  A    between atoms: _27  and  _28
REMARK   11  A    between atoms: _27  and  _30
REMARK   12  A    between atoms: _30  and  _31
REMARK   13  A    between atoms: _34  and  _36
REMARK   14  A    between atoms: _36  and  _37
REMARK   15  A    between atoms: _36  and  _39
REMARK   16  A    between atoms: _39  and  _40
REMARK   17  A    between atoms: _40  and  _41
REMARK   18  A    between atoms: _43  and  _45
REMARK   19  A    between atoms: _45  and  _46
REMARK   20  A    between atoms: _48  and  _50
REMARK   21  A    between atoms: _50  and  _51
REMARK   22  A    between atoms: _54  and  _56
REMARK   23  A    between atoms: _56  and  _57
REMARK   24  A    between atoms: _56  and  _59
REMARK   25  A    between atoms: _59  and  _60
REMARK   26  A    between atoms: _63  and  _65
REMARK   27  A    between atoms: _65  and  _66
REMARK   28  A    between atoms: _65  and  _68
REMARK   29  A    between atoms: _68  and  _69
REMARK   30  A    between atoms: _74  and  _76
REMARK   31  A    between atoms: _76  and  _77
REMARK   32  A    between atoms: _76  and  _79
REMARK   33  A    between atoms: _79  and  _80
REMARK   34  A    between atoms: _80  and  _81
REMARK   35  A    between atoms: _84  and  _86
REMARK   36  A    between atoms: _86  and  _87
REMARK   37  A    between atoms: _89  and  _91
REMARK   38  A    between atoms: _91  and  _92
REMARK   39  A    between atoms: _91  and  _94
REMARK   40  A    between atoms: _94  and  _95
REMARK   41  A    between atoms: _100  and  _102
REMARK   42  A    between atoms: _102  and  _103
REMARK   43  A    between atoms: _102  and  _105
REMARK   44  A    between atoms: _105  and  _106
REMARK   45  A    between atoms: _109  and  _111
REMARK   46  A    between atoms: _111  and  _112
REMARK   47  A    between atoms: _115  and  _117
REMARK   48  A    between atoms: _117  and  _118
REMARK   49  A    between atoms: _117  and  _120
REMARK   50  A    between atoms: _120  and  _121
REMARK   51  A    between atoms: _124  and  _126
REMARK   52  A    between atoms: _126  and  _127
REMARK   53  A    between atoms: _126  and  _129
REMARK   54  A    between atoms: _132  and  _134
REMARK   55  A    between atoms: _134  and  _135
REMARK   56  A    between atoms: _134  and  _137
REMARK   57  A    between atoms: _140  and  _142
REMARK   58  A    between atoms: _142  and  _143
REMARK   59  A    between atoms: _142  and  _145
REMARK   60  A    between atoms: _145  and  _146
REMARK   61  A    between atoms: _148  and  _150
REMARK   62  A    between atoms: _150  and  _151
REMARK   63  A    between atoms: _150  and  _153
REMARK   64  A    between atoms: _153  and  _154
REMARK   65  A    between atoms: _157  and  _159
REMARK   66  A    between atoms: _159  and  _160
REMARK   67  A    between atoms: _159  and  _162
REMARK   68  A    between atoms: _162  and  _163
REMARK   69  A    between atoms: _169  and  _171
REMARK   70  A    between atoms: _171  and  _172
REMARK   71  A    between atoms: _171  and  _174
REMARK   72  A    between atoms: _177  and  _179
REMARK   73  A    between atoms: _179  and  _180
REMARK   74  A    between atoms: _179  and  _182
REMARK   75  A    between atoms: _182  and  _183
REMARK   76  A    between atoms: _189  and  _190
REMARK   77  A    between atoms: _195  and  _197
REMARK   78  A    between atoms: _197  and  _198
REMARK   79  A    between atoms: _197  and  _200
REMARK   80  A    between atoms: _200  and  _201
REMARK   81  A    between atoms: _201  and  _202
REMARK   82  A    between atoms: _204  and  _206
REMARK   83  A    between atoms: _206  and  _207
REMARK   84  A    between atoms: _206  and  _209
REMARK   85  A    between atoms: _209  and  _210
REMARK   86  A    between atoms: _210  and  _211
REMARK   87  A    between atoms: _216  and  _218
REMARK   88  A    between atoms: _218  and  _219
REMARK   89  A    between atoms: _218  and  _221
REMARK   90  A    between atoms: _221  and  _222
REMARK   91  A    between atoms: _228  and  _230
REMARK   92  A    between atoms: _230  and  _231
REMARK   93  A    between atoms: _230  and  _233
REMARK   94  A    between atoms: _233  and  _234
REMARK   95  A    between atoms: _239  and  _240
REMARK   96  A    between atoms: _242  and  _244
REMARK   97  A    between atoms: _244  and  _245
REMARK   98  A    between atoms: _244  and  _247
REMARK   99  A    between atoms: _247  and  _248
REMARK  100  A    between atoms: _255  and  _256
REMARK  101  A    between atoms: _261  and  _263
REMARK  102  A    between atoms: _263  and  _264
REMARK  103  A    between atoms: _263  and  _266
REMARK  104  A    between atoms: _266  and  _267
REMARK  105  A    between atoms: _267  and  _268
REMARK  106  A    between atoms: _270  and  _272
REMARK  107  A    between atoms: _272  and  _273
REMARK  108  A    between atoms: _272  and  _275
REMARK  109  A    between atoms: _275  and  _276
REMARK  110  A    between atoms: _281  and  _282
REMARK  111  A    between atoms: _284  and  _286
REMARK  112  A    between atoms: _286  and  _287
REMARK  113  A    between atoms: _286  and  _289
REMARK  114  A    between atoms: _289  and  _290
REMARK  115  A    between atoms: _295  and  _297
REMARK  116  A    between atoms: _297  and  _298
REMARK  117  A    between atoms: _297  and  _300
REMARK  118  A    between atoms: _300  and  _301
REMARK  119  A    between atoms: _307  and  _309
REMARK  120  A    between atoms: _309  and  _310
REMARK  121  A    between atoms: _312  and  _314
REMARK  122  A    between atoms: _314  and  _315
REMARK  123  A    between atoms: _314  and  _317
REMARK  124  A    between atoms: _320  and  _322
REMARK  125  A    between atoms: _322  and  _323
REMARK  126  A    between atoms: _322  and  _325
REMARK  127  A    between atoms: _325  and  _326
REMARK  128  A    between atoms: _329  and  _331
REMARK  129  A    between atoms: _331  and  _332
REMARK  130  A    between atoms: _331  and  _334
REMARK  131  A    between atoms: _334  and  _335
REMARK  132  A    between atoms: _338  and  _340
REMARK  133  A    between atoms: _340  and  _341
REMARK  134  A    between atoms: _340  and  _343
REMARK  135  A    between atoms: _346  and  _348
REMARK  136  A    between atoms: _348  and  _349
REMARK  137  A    between atoms: _348  and  _351
REMARK  138  A    between atoms: _354  and  _356
REMARK  139  A    between atoms: _356  and  _357
REMARK  140  A    between atoms: _356  and  _359
REMARK  141  A    between atoms: _359  and  _360
REMARK  142  A    between atoms: _363  and  _365
REMARK  143  A    between atoms: _365  and  _366
REMARK  144  A    between atoms: _365  and  _368
REMARK  145  A    between atoms: _368  and  _369
REMARK  146  A    between atoms: _375  and  _377
REMARK  147  A    between atoms: _377  and  _378
REMARK  148  A    between atoms: _377  and  _380
REMARK  149  A    between atoms: _380  and  _381
REMARK  150  A    between atoms: _387  and  _389
REMARK  151  A    between atoms: _389  and  _390
REMARK  152  A    between atoms: _392  and  _394
REMARK  153  A    between atoms: _394  and  _395
REMARK  154  A    between atoms: _394  and  _397
REMARK  155  A    between atoms: _397  and  _398
REMARK  156  A    between atoms: _398  and  _399
REMARK  157  A    between atoms: _402  and  _404
REMARK  158  A    between atoms: _404  and  _405
REMARK  159  A    between atoms: _404  and  _407
REMARK  160  A    between atoms: _407  and  _408
REMARK  161  A    between atoms: _408  and  _409
REMARK  162  A    between atoms: _409  and  _410
REMARK  163  A    between atoms: _410  and  _411
REMARK  164  A    between atoms: _415  and  _417
REMARK  165  A    between atoms: _417  and  _418
REMARK  166  A    between atoms: _417  and  _420
REMARK  167  A    between atoms: _420  and  _421
REMARK  168  A    between atoms: _424  and  _426
REMARK  169  A    between atoms: _426  and  _427
REMARK  170  A    between atoms: _426  and  _429
REMARK  171  A    between atoms: _429  and  _430
REMARK  172  A    between atoms: _435  and  _436
REMARK  173  A    between atoms: _438  and  _440
REMARK  174  A    between atoms: _440  and  _441
REMARK  175  A    between atoms: _440  and  _443
REMARK  176  A    between atoms: _443  and  _444
REMARK  177  A    between atoms: _444  and  _445
REMARK  178  A    between atoms: _450  and  _452
REMARK  179  A    between atoms: _452  and  _453
REMARK  180  A    between atoms: _452  and  _455
REMARK  181  A    between atoms: _455  and  _456
REMARK  182  A    between atoms: _459  and  _461
REMARK  183  A    between atoms: _461  and  _462
REMARK  184  A    between atoms: _461  and  _464
REMARK  185  A    between atoms: _464  and  _465
REMARK  186  A    between atoms: _468  and  _470
REMARK  187  A    between atoms: _470  and  _471
REMARK  188  A    between atoms: _470  and  _473
REMARK  189  A    between atoms: _476  and  _478
REMARK  190  A    between atoms: _478  and  _479
REMARK  191  A    between atoms: _478  and  _481
REMARK  192  A    between atoms: _485  and  _486
REMARK  193  A    between atoms: _491  and  _493
REMARK  194  A    between atoms: _493  and  _494
REMARK  195  A    between atoms: _493  and  _496
REMARK  196  A    between atoms: _496  and  _497
REMARK  197  A    between atoms: _500  and  _502
REMARK  198  A    between atoms: _502  and  _503
REMARK  199  A    between atoms: _502  and  _505
REMARK  200  A    between atoms: _508  and  _510
REMARK  201  A    between atoms: _510  and  _511
REMARK  202  A    between atoms: _510  and  _513
REMARK  203  A    between atoms: _513  and  _514
REMARK  204  A    between atoms: _514  and  _515
REMARK  205  A    between atoms: _515  and  _516
REMARK  206  A    between atoms: _525  and  _527
REMARK  207  A    between atoms: _527  and  _528
REMARK  208  A    between atoms: _527  and  _530
REMARK  209  A    between atoms: _530  and  _531
REMARK  210  A    between atoms: _531  and  _532
REMARK  211  A    between atoms: _535  and  _537
REMARK  212  A    between atoms: _537  and  _538
REMARK  213  A    between atoms: _537  and  _540
REMARK  214  A    between atoms: _540  and  _541
REMARK  215  A    between atoms: _544  and  _546
REMARK  216  A    between atoms: _546  and  _547
REMARK  217  A    between atoms: _550  and  _552
REMARK  218  A    between atoms: _552  and  _553
REMARK  219  A    between atoms: _552  and  _555
REMARK  220  A    between atoms: _555  and  _556
REMARK  221  A    between atoms: _556  and  _557
REMARK  222  A    between atoms: _559  and  _561
REMARK  223  A    between atoms: _561  and  _562
REMARK  224  A    between atoms: _561  and  _564
REMARK  225  A    between atoms: _564  and  _565
REMARK  226  A    between atoms: _567  and  _569
REMARK  227  A    between atoms: _569  and  _570
REMARK  228  A    between atoms: _569  and  _572
REMARK  229  A    between atoms: _572  and  _573
REMARK  230  A    between atoms: _575  and  _577
REMARK  231  A    between atoms: _577  and  _578
REMARK  232  A    between atoms: _577  and  _580
REMARK  233  A    between atoms: _580  and  _581
REMARK  234  A    between atoms: _581  and  _582
REMARK  235  A    between atoms: _582  and  _583
REMARK  236  A    between atoms: _592  and  _594
REMARK  237  A    between atoms: _594  and  _595
REMARK  238  A    between atoms: _594  and  _597
REMARK  239  A    between atoms: _597  and  _598
REMARK  240  A    between atoms: _603  and  _605
REMARK  241  A    between atoms: _605  and  _606
REMARK  242  A    between atoms: _605  and  _608
REMARK  243  A    between atoms: _608  and  _609
REMARK  244  A    between atoms: _612  and  _614
REMARK  245  A    between atoms: _614  and  _615
REMARK  246  A    between atoms: _614  and  _617
REMARK  247  A    between atoms: _617  and  _618
REMARK  248  A    between atoms: _621  and  _623
REMARK  249  A    between atoms: _623  and  _624
REMARK  250  A    between atoms: _623  and  _626
REMARK  251  A    between atoms: _626  and  _627
REMARK                            x       y       z     vdW  Elec       q    Type
REMARK                         _______ _______ _______ _____ _____    ______ ____
ROOT
ATOM      1  C   GLN A   1      14.123   1.007   4.245  0.00  0.00    +0.238 C 
ATOM      2  O   GLN A   1      13.455   0.763   5.243  0.00  0.00    -0.274 OA
ATOM      3  N   LEU A   2      13.603   1.055   3.016  0.00  0.00    -0.298 N 
ATOM      4  H   LEU A   2      14.224   1.296   2.217  0.00  0.00    +0.150 HD
ENDROOT
BRANCH   1   5
ATOM      5  CA  GLN A   1      15.632   1.269   4.379  0.00  0.00    +0.145 C 
BRANCH   5   6
ATOM      6  N   GLN A   1      16.388   0.543   3.377  0.00  0.00    -0.238 NA
ATOM      7  H   GLN A   1      16.986   1.070   2.709  0.00  0.00    +0.142 HD
ENDBRANCH   5   6
BRANCH   5   8
ATOM      8  CB  GLN A   1      15.899   2.753   4.232  0.00  0.00    +0.036 C 
BRANCH   8   9
ATOM      9  CG  GLN A   1      15.030   3.615   5.112  0.00  0.00    +0.087 C 
BRANCH   9  10
ATOM     10  CD  GLN A   1      15.487   5.019   5.034  0.00  0.00    +0.219 C 
ATOM     11  OE1 GLN A   1      16.385   5.411   5.770  0.00  0.00    -0.275 OA
ATOM     12  NE2 GLN A   1      14.949   5.771   4.076  0.00  0.00    -0.329 N 
ATOM     13 HE21 GLN A   1      15.289   6.742   3.924  0.00  0.00    +0.145 HD
ATOM     14 HE22 GLN A   1      14.188   5.388   3.479  0.00  0.00    +0.145 HD
ENDBRANCH   9  10
ENDBRANCH   8   9
ENDBRANCH   5   8
ENDBRANCH   1   5
BRANCH   3  15
ATOM     15  CA  LEU A   2      12.191   0.780   2.755  0.00  0.00    +0.137 C 
BRANCH  15  16
ATOM     16  C   LEU A   2      11.814  -0.616   3.204  0.00  0.00    +0.227 C 
ATOM     17  O   LEU A   2      10.795  -0.805   3.863  0.00  0.00    -0.286 OA
ENDBRANCH  15  16
BRANCH  15  18
ATOM     18  CB  LEU A   2      11.913   0.942   1.253  0.00  0.00    +0.028 C 
BRANCH  18  19
ATOM     19  CG  LEU A   2      10.510   0.621   0.707  0.00  0.00    +0.002 C 
ATOM     20  CD2 LEU A   2       9.429   1.411   1.394  0.00  0.00    +0.000 C 
ATOM     21  CD1 LEU A   2      10.501   0.942  -0.790  0.00  0.00    +0.000 C 
ENDBRANCH  18  19
ENDBRANCH  15  18
ENDBRANCH   3  15
TORSDOF 9
REMARK  Name = ../refined-set-2016/3iod/3iod_pocket.pdb
REMARK  251 active torsions:
REMARK  status: ('A' for Active; 'I' for Inactive)
REMARK    1  A    between atoms: _1  and  _3
REMARK    2  A    between atoms: _3  and  _4
REMARK    3  A    between atoms: _3  and  _6
REMARK    4  A    between atoms: _6  and  _7
REMARK    5  A    between atoms: _10  and  _12
REMARK    6  A    between atoms: _12  and  _13
REMARK    7  A    between atoms: _12  and  _15
REMARK    8  A    between atoms: _19  and  _20
REMARK    9  A    between atoms: _25  and  _27
REMARK   10  A    between atoms: _27  and  _28
REMARK   11  A    between atoms: _27  and  _30
REMARK   12  A    between atoms: _30  and  _31
REMARK   13  A    between atoms: _34  and  _36
REMARK   14  A    between atoms: _36  and  _37
REMARK   15  A    between atoms: _36  and  _39
REMARK   16  A    between atoms: _39  and  _40
REMARK   17  A    between atoms: _40  and  _41
REMARK   18  A    between atoms: _43  and  _45
REMARK   19  A    between atoms: _45  and  _46
REMARK   20  A    between atoms: _48  and  _50
REMARK   21  A    between atoms: _50  and  _51
REMARK   22  A    between atoms: _54  and  _56
REMARK   23  A    between atoms: _56  and  _57
REMARK   24  A    between atoms: _56  and  _59
REMARK   25  A    between atoms: _59  and  _60
REMARK   26  A    between atoms: _63  and  _65
REMARK   27  A    between atoms: _65  and  _66
REMARK   28  A    between atoms: _65  and  _68
REMARK   29  A    between atoms: _68  and  _69
REMARK   30  A    between atoms: _74  and  _76
REMARK   31  A    between atoms: _76  and  _77
REMARK   32  A    between atoms: _76  and  _79
REMARK   33  A    between atoms: _79  and  _80
REMARK   34  A    between atoms: _80  and  _81
REMARK   35  A    between atoms: _84  and  _86
REMARK   36  A    between atoms: _86  and  _87
REMARK   37  A    between atoms: _89  and  _91
REMARK   38  A    between atoms: _91  and  _92
REMARK   39  A    between atoms: _91  and  _94
REMARK   40  A    between atoms: _94  and  _95
REMARK   41  A    between atoms: _100  and  _102
REMARK   42  A    between atoms: _102  and  _103
REMARK   43  A    between atoms: _102  and  _105
REMARK   44  A    between atoms: _105  and  _106
REMARK   45  A    between atoms: _109  and  _111
REMARK   46  A    between atoms: _111  and  _112
REMARK   47  A    between atoms: _115  and  _117
REMARK   48  A    between atoms: _117  and  _118
REMARK   49  A    between atoms: _117  and  _120
REMARK   50  A    between atoms: _120  and  _121
REMARK   51  A    between atoms: _124  and  _126
REMARK   52  A    between atoms: _126  and  _127
REMARK   53  A    between atoms: _126  and  _129
REMARK   54  A    between atoms: _132  and  _134
REMARK   55  A    between atoms: _134  and  _135
REMARK   56  A    between atoms: _134  and  _137
REMARK   57  A    between atoms: _140  and  _142
REMARK   58  A    between atoms: _142  and  _143
REMARK   59  A    between atoms: _142  and  _145
REMARK   60  A    between atoms: _145  and  _146
REMARK   61  A    between atoms: _148  and  _150
REMARK   62  A    between atoms: _150  and  _151
REMARK   63  A    between atoms: _150  and  _153
REMARK   64  A    between atoms: _153  and  _154
REMARK   65  A    between atoms: _157  and  _159
REMARK   66  A    between atoms: _159  and  _160
REMARK   67  A    between atoms: _159  and  _162
REMARK   68  A    between atoms: _162  and  _163
REMARK   69  A    between atoms: _169  and  _171
REMARK   70  A    between atoms: _171  and  _172
REMARK   71  A    between atoms: _171  and  _174
REMARK   72  A    between atoms: _177  and  _179
REMARK   73  A    between atoms: _179  and  _180
REMARK   74  A    between atoms: _179  and  _182
REMARK   75  A    between atoms: _182  and  _183
REMARK   76  A    between atoms: _189  and  _190
REMARK   77  A    between atoms: _195  and  _197
REMARK   78  A    between atoms: _197  and  _198
REMARK   79  A    between atoms: _197  and  _200
REMARK   80  A    between atoms: _200  and  _201
REMARK   81  A    between atoms: _201  and  _202
REMARK   82  A    between atoms: _204  and  _206
REMARK   83  A    between atoms: _206  and  _207
REMARK   84  A    between atoms: _206  and  _209
REMARK   85  A    between atoms: _209  and  _210
REMARK   86  A    between atoms: _210  and  _211
REMARK   87  A    between atoms: _216  and  _218
REMARK   88  A    between atoms: _218  and  _219
REMARK   89  A    between atoms: _218  and  _221
REMARK   90  A    between atoms: _221  and  _222
REMARK   91  A    between atoms: _228  and  _230
REMARK   92  A    between atoms: _230  and  _231
REMARK   93  A    between atoms: _230  and  _233
REMARK   94  A    between atoms: _233  and  _234
REMARK   95  A    between atoms: _239  and  _240
REMARK   96  A    between atoms: _242  and  _244
REMARK   97  A    between atoms: _244  and  _245
REMARK   98  A    between atoms: _244  and  _247
REMARK   99  A    between atoms: _247  and  _248
REMARK  100  A    between atoms: _255  and  _256
REMARK  101  A    between atoms: _261  and  _263
REMARK  102  A    between atoms: _263  and  _264
REMARK  103  A    between atoms: _263  and  _266
REMARK  104  A    between atoms: _266  and  _267
REMARK  105  A    between atoms: _267  and  _268
REMARK  106  A    between atoms: _270  and  _272
REMARK  107  A    between atoms: _272  and  _273
REMARK  108  A    between atoms: _272  and  _275
REMARK  109  A    between atoms: _275  and  _276
REMARK  110  A    between atoms: _281  and  _282
REMARK  111  A    between atoms: _284  and  _286
REMARK  112  A    between atoms: _286  and  _287
REMARK  113  A    between atoms: _286  and  _289
REMARK  114  A    between atoms: _289  and  _290
REMARK  115  A    between atoms: _295  and  _297
REMARK  116  A    between atoms: _297  and  _298
REMARK  117  A    between atoms: _297  and  _300
REMARK  118  A    between atoms: _300  and  _301
REMARK  119  A    between atoms: _307  and  _309
REMARK  120  A    between atoms: _309  and  _310
REMARK  121  A    between atoms: _312  and  _314
REMARK  122  A    between atoms: _314  and  _315
REMARK  123  A    between atoms: _314  and  _317
REMARK  124  A    between atoms: _320  and  _322
REMARK  125  A    between atoms: _322  and  _323
REMARK  126  A    between atoms: _322  and  _325
REMARK  127  A    between atoms: _325  and  _326
REMARK  128  A    between atoms: _329  and  _331
REMARK  129  A    between atoms: _331  and  _332
REMARK  130  A    between atoms: _331  and  _334
REMARK  131  A    between atoms: _334  and  _335
REMARK  132  A    between atoms: _338  and  _340
REMARK  133  A    between atoms: _340  and  _341
REMARK  134  A    between atoms: _340  and  _343
REMARK  135  A    between atoms: _346  and  _348
REMARK  136  A    between atoms: _348  and  _349
REMARK  137  A    between atoms: _348  and  _351
REMARK  138  A    between atoms: _354  and  _356
REMARK  139  A    between atoms: _356  and  _357
REMARK  140  A    between atoms: _356  and  _359
REMARK  141  A    between atoms: _359  and  _360
REMARK  142  A    between atoms: _363  and  _365
REMARK  143  A    between atoms: _365  and  _366
REMARK  144  A    between atoms: _365  and  _368
REMARK  145  A    between atoms: _368  and  _369
REMARK  146  A    between atoms: _375  and  _377
REMARK  147  A    between atoms: _377  and  _378
REMARK  148  A    between atoms: _377  and  _380
REMARK  149  A    between atoms: _380  and  _381
REMARK  150  A    between atoms: _387  and  _389
REMARK  151  A    between atoms: _389  and  _390
REMARK  152  A    between atoms: _392  and  _394
REMARK  153  A    between atoms: _394  and  _395
REMARK  154  A    between atoms: _394  and  _397
REMARK  155  A    between atoms: _397  and  _398
REMARK  156  A    between atoms: _398  and  _399
REMARK  157  A    between atoms: _402  and  _404
REMARK  158  A    between atoms: _404  and  _405
REMARK  159  A    between atoms: _404  and  _407
REMARK  160  A    between atoms: _407  and  _408
REMARK  161  A    between atoms: _408  and  _409
REMARK  162  A    between atoms: _409  and  _410
REMARK  163  A    between atoms: _410  and  _411
REMARK  164  A    between atoms: _415  and  _417
REMARK  165  A    between atoms: _417  and  _418
REMARK  166  A    between atoms: _417  and  _420
REMARK  167  A    between atoms: _420  and  _421
REMARK  168  A    between atoms: _424  and  _426
REMARK  169  A    between atoms: _426  and  _427
REMARK  170  A    between atoms: _426  and  _429
REMARK  171  A    between atoms: _429  and  _430
REMARK  172  A    between atoms: _435  and  _436
REMARK  173  A    between atoms: _438  and  _440
REMARK  174  A    between atoms: _440  and  _441
REMARK  175  A    between atoms: _440  and  _443
REMARK  176  A    between atoms: _443  and  _444
REMARK  177  A    between atoms: _444  and  _445
REMARK  178  A    between atoms: _450  and  _452
REMARK  179  A    between atoms: _452  and  _453
REMARK  180  A    between atoms: _452  and  _455
REMARK  181  A    between atoms: _455  and  _456
REMARK  182  A    between atoms: _459  and  _461
REMARK  183  A    between atoms: _461  and  _462
REMARK  184  A    between atoms: _461  and  _464
REMARK  185  A    between atoms: _464  and  _465
REMARK  186  A    between atoms: _468  and  _470
REMARK  187  A    between atoms: _470  and  _471
REMARK  188  A    between atoms: _470  and  _473
REMARK  189  A    between atoms: _476  and  _478
REMARK  190  A    between atoms: _478  and  _479
REMARK  191  A    between atoms: _478  and  _481
REMARK  192  A    between atoms: _485  and  _486
REMARK  193  A    between atoms: _491  and  _493
REMARK  194  A    between atoms: _493  and  _494
REMARK  195  A    between atoms: _493  and  _496
REMARK  196  A    between atoms: _496  and  _497
REMARK  197  A    between atoms: _500  and  _502
REMARK  198  A    between atoms: _502  and  _503
REMARK  199  A    between atoms: _502  and  _505
REMARK  200  A    between atoms: _508  and  _510
REMARK  201  A    between atoms: _510  and  _511
REMARK  202  A    between atoms: _510  and  _513
REMARK  203  A    between atoms: _513  and  _514
REMARK  204  A    between atoms: _514  and  _515
REMARK  205  A    between atoms: _515  and  _516
REMARK  206  A    between atoms: _525  and  _527
REMARK  207  A    between atoms: _527  and  _528
REMARK  208  A    between atoms: _527  and  _530
REMARK  209  A    between atoms: _530  and  _531
REMARK  210  A    between atoms: _531  and  _532
REMARK  211  A    between atoms: _535  and  _537
REMARK  212  A    between atoms: _537  and  _538
REMARK  213  A    between atoms: _537  and  _540
REMARK  214  A    between atoms: _540  and  _541
REMARK  215  A    between atoms: _544  and  _546
REMARK  216  A    between atoms: _546  and  _547
REMARK  217  A    between atoms: _550  and  _552
REMARK  218  A    between atoms: _552  and  _553
REMARK  219  A    between atoms: _552  and  _555
REMARK  220  A    between atoms: _555  and  _556
REMARK  221  A    between atoms: _556  and  _557
REMARK  222  A    between atoms: _559  and  _561
REMARK  223  A    between atoms: _561  and  _562
REMARK  224  A    between atoms: _561  and  _564
REMARK  225  A    between atoms: _564  and  _565
REMARK  226  A    between atoms: _567  and  _569
REMARK  227  A    between atoms: _569  and  _570
REMARK  228  A    between atoms: _569  and  _572
REMARK  229  A    between atoms: _572  and  _573
REMARK  230  A    between atoms: _575  and  _577
REMARK  231  A    between atoms: _577  and  _578
REMARK  232  A    between atoms: _577  and  _580
REMARK  233  A    between atoms: _580  and  _581
REMARK  234  A    between atoms: _581  and  _582
REMARK  235  A    between atoms: _582  and  _583
REMARK  236  A    between atoms: _592  and  _594
REMARK  237  A    between atoms: _594  and  _595
REMARK  238  A    between atoms: _594  and  _597
REMARK  239  A    between atoms: _597  and  _598
REMARK  240  A    between atoms: _603  and  _605
REMARK  241  A    between atoms: _605  and  _606
REMARK  242  A    between atoms: _605  and  _608
REMARK  243  A    between atoms: _608  and  _609
REMARK  244  A    between atoms: _612  and  _614
REMARK  245  A    between atoms: _614  and  _615
REMARK  246  A    between atoms: _614  and  _617
REMARK  247  A    between atoms: _617  and  _618
REMARK  248  A    between atoms: _621  and  _623
REMARK  249  A    between atoms: _623  and  _624
REMARK  250  A    between atoms: _623  and  _626
REMARK  251  A    between atoms: _626  and  _627
REMARK                            x       y       z     vdW  Elec       q    Type
REMARK                         _______ _______ _______ _____ _____    ______ ____
ROOT
ATOM      1  CA  ILE A   1      10.518  -0.100   7.463  0.00  0.00    +0.133 C 
ENDROOT
BRANCH   1   2
ATOM      2  N   ILE A   1      11.714  -0.757   6.929  0.00  0.00    -0.239 NA
ATOM      3  H   ILE A   1      12.200  -0.374   6.093  0.00  0.00    +0.142 HD
ENDBRANCH   1   2
BRANCH   1   4
ATOM      4  C   ILE A   1       9.297  -1.002   7.282  0.00  0.00    +0.224 C 
ATOM      5  O   ILE A   1       8.459  -1.064   8.157  0.00  0.00    -0.287 OA
ENDBRANCH   1   4
BRANCH   1   6
ATOM      6  CB  ILE A   1      10.346   1.286   6.881  0.00  0.00    +0.023 C 
ATOM      7  CG2 ILE A   1       8.988   1.913   7.308  0.00  0.00    +0.002 C 
BRANCH   6   8
ATOM      8  CG1 ILE A   1      11.435   2.178   7.486  0.00  0.00    +0.002 C 
ATOM      9  CD1 ILE A   1      11.793   3.361   6.632  0.00  0.00    +0.000 C 
ENDBRANCH   6   8
ENDBRANCH   1   6
TORSDOF 4
REMARK  Name = ../refined-set-2016/3iod/3iod_pocket.pdb
REMARK  251 active torsions:
REMARK  status: ('A' for Active; 'I' for Inactive)
REMARK    1  A    between atoms: _1  and  _3
REMARK    2  A    between atoms: _3  and  _4
REMARK    3  A    between atoms: _3  and  _6
REMARK    4  A    between atoms: _6  and  _7
REMARK    5  A    between atoms: _10  and  _12
REMARK    6  A    between atoms: _12  and  _13
REMARK    7  A    between atoms: _12  and  _15
REMARK    8  A    between atoms: _19  and  _20
REMARK    9  A    between atoms: _25  and  _27
REMARK   10  A    between atoms: _27  and  _28
REMARK   11  A    between atoms: _27  and  _30
REMARK   12  A    between atoms: _30  and  _31
REMARK   13  A    between atoms: _34  and  _36
REMARK   14  A    between atoms: _36  and  _37
REMARK   15  A    between atoms: _36  and  _39
REMARK   16  A    between atoms: _39  and  _40
REMARK   17  A    between atoms: _40  and  _41
REMARK   18  A    between atoms: _43  and  _45
REMARK   19  A    between atoms: _45  and  _46
REMARK   20  A    between atoms: _48  and  _50
REMARK   21  A    between atoms: _50  and  _51
REMARK   22  A    between atoms: _54  and  _56
REMARK   23  A    between atoms: _56  and  _57
REMARK   24  A    between atoms: _56  and  _59
REMARK   25  A    between atoms: _59  and  _60
REMARK   26  A    between atoms: _63  and  _65
REMARK   27  A    between atoms: _65  and  _66
REMARK   28  A    between atoms: _65  and  _68
REMARK   29  A    between atoms: _68  and  _69
REMARK   30  A    between atoms: _74  and  _76
REMARK   31  A    between atoms: _76  and  _77
REMARK   32  A    between atoms: _76  and  _79
REMARK   33  A    between atoms: _79  and  _80
REMARK   34  A    between atoms: _80  and  _81
REMARK   35  A    between atoms: _84  and  _86
REMARK   36  A    between atoms: _86  and  _87
REMARK   37  A    between atoms: _89  and  _91
REMARK   38  A    between atoms: _91  and  _92
REMARK   39  A    between atoms: _91  and  _94
REMARK   40  A    between atoms: _94  and  _95
REMARK   41  A    between atoms: _100  and  _102
REMARK   42  A    between atoms: _102  and  _103
REMARK   43  A    between atoms: _102  and  _105
REMARK   44  A    between atoms: _105  and  _106
REMARK   45  A    between atoms: _109  and  _111
REMARK   46  A    between atoms: _111  and  _112
REMARK   47  A    between atoms: _115  and  _117
REMARK   48  A    between atoms: _117  and  _118
REMARK   49  A    between atoms: _117  and  _120
REMARK   50  A    between atoms: _120  and  _121
REMARK   51  A    between atoms: _124  and  _126
REMARK   52  A    between atoms: _126  and  _127
REMARK   53  A    between atoms: _126  and  _129
REMARK   54  A    between atoms: _132  and  _134
REMARK   55  A    between atoms: _134  and  _135
REMARK   56  A    between atoms: _134  and  _137
REMARK   57  A    between atoms: _140  and  _142
REMARK   58  A    between atoms: _142  and  _143
REMARK   59  A    between atoms: _142  and  _145
REMARK   60  A    between atoms: _145  and  _146
REMARK   61  A    between atoms: _148  and  _150
REMARK   62  A    between atoms: _150  and  _151
REMARK   63  A    between atoms: _150  and  _153
REMARK   64  A    between atoms: _153  and  _154
REMARK   65  A    between atoms: _157  and  _159
REMARK   66  A    between atoms: _159  and  _160
REMARK   67  A    between atoms: _159  and  _162
REMARK   68  A    between atoms: _162  and  _163
REMARK   69  A    between atoms: _169  and  _171
REMARK   70  A    between atoms: _171  and  _172
REMARK   71  A    between atoms: _171  and  _174
REMARK   72  A    between atoms: _177  and  _179
REMARK   73  A    between atoms: _179  and  _180
REMARK   74  A    between atoms: _179  and  _182
REMARK   75  A    between atoms: _182  and  _183
REMARK   76  A    between atoms: _189  and  _190
REMARK   77  A    between atoms: _195  and  _197
REMARK   78  A    between atoms: _197  and  _198
REMARK   79  A    between atoms: _197  and  _200
REMARK   80  A    between atoms: _200  and  _201
REMARK   81  A    between atoms: _201  and  _202
REMARK   82  A    between atoms: _204  and  _206
REMARK   83  A    between atoms: _206  and  _207
REMARK   84  A    between atoms: _206  and  _209
REMARK   85  A    between atoms: _209  and  _210
REMARK   86  A    between atoms: _210  and  _211
REMARK   87  A    between atoms: _216  and  _218
REMARK   88  A    between atoms: _218  and  _219
REMARK   89  A    between atoms: _218  and  _221
REMARK   90  A    between atoms: _221  and  _222
REMARK   91  A    between atoms: _228  and  _230
REMARK   92  A    between atoms: _230  and  _231
REMARK   93  A    between atoms: _230  and  _233
REMARK   94  A    between atoms: _233  and  _234
REMARK   95  A    between atoms: _239  and  _240
REMARK   96  A    between atoms: _242  and  _244
REMARK   97  A    between atoms: _244  and  _245
REMARK   98  A    between atoms: _244  and  _247
REMARK   99  A    between atoms: _247  and  _248
REMARK  100  A    between atoms: _255  and  _256
REMARK  101  A    between atoms: _261  and  _263
REMARK  102  A    between atoms: _263  and  _264
REMARK  103  A    between atoms: _263  and  _266
REMARK  104  A    between atoms: _266  and  _267
REMARK  105  A    between atoms: _267  and  _268
REMARK  106  A    between atoms: _270  and  _272
REMARK  107  A    between atoms: _272  and  _273
REMARK  108  A    between atoms: _272  and  _275
REMARK  109  A    between atoms: _275  and  _276
REMARK  110  A    between atoms: _281  and  _282
REMARK  111  A    between atoms: _284  and  _286
REMARK  112  A    between atoms: _286  and  _287
REMARK  113  A    between atoms: _286  and  _289
REMARK  114  A    between atoms: _289  and  _290
REMARK  115  A    between atoms: _295  and  _297
REMARK  116  A    between atoms: _297  and  _298
REMARK  117  A    between atoms: _297  and  _300
REMARK  118  A    between atoms: _300  and  _301
REMARK  119  A    between atoms: _307  and  _309
REMARK  120  A    between atoms: _309  and  _310
REMARK  121  A    between atoms: _312  and  _314
REMARK  122  A    between atoms: _314  and  _315
REMARK  123  A    between atoms: _314  and  _317
REMARK  124  A    between atoms: _320  and  _322
REMARK  125  A    between atoms: _322  and  _323
REMARK  126  A    between atoms: _322  and  _325
REMARK  127  A    between atoms: _325  and  _326
REMARK  128  A    between atoms: _329  and  _331
REMARK  129  A    between atoms: _331  and  _332
REMARK  130  A    between atoms: _331  and  _334
REMARK  131  A    between atoms: _334  and  _335
REMARK  132  A    between atoms: _338  and  _340
REMARK  133  A    between atoms: _340  and  _341
REMARK  134  A    between atoms: _340  and  _343
REMARK  135  A    between atoms: _346  and  _348
REMARK  136  A    between atoms: _348  and  _349
REMARK  137  A    between atoms: _348  and  _351
REMARK  138  A    between atoms: _354  and  _356
REMARK  139  A    between atoms: _356  and  _357
REMARK  140  A    between atoms: _356  and  _359
REMARK  141  A    between atoms: _359  and  _360
REMARK  142  A    between atoms: _363  and  _365
REMARK  143  A    between atoms: _365  and  _366
REMARK  144  A    between atoms: _365  and  _368
REMARK  145  A    between atoms: _368  and  _369
REMARK  146  A    between atoms: _375  and  _377
REMARK  147  A    between atoms: _377  and  _378
REMARK  148  A    between atoms: _377  and  _380
REMARK  149  A    between atoms: _380  and  _381
REMARK  150  A    between atoms: _387  and  _389
REMARK  151  A    between atoms: _389  and  _390
REMARK  152  A    between atoms: _392  and  _394
REMARK  153  A    between atoms: _394  and  _395
REMARK  154  A    between atoms: _394  and  _397
REMARK  155  A    between atoms: _397  and  _398
REMARK  156  A    between atoms: _398  and  _399
REMARK  157  A    between atoms: _402  and  _404
REMARK  158  A    between atoms: _404  and  _405
REMARK  159  A    between atoms: _404  and  _407
REMARK  160  A    between atoms: _407  and  _408
REMARK  161  A    between atoms: _408  and  _409
REMARK  162  A    between atoms: _409  and  _410
REMARK  163  A    between atoms: _410  and  _411
REMARK  164  A    between atoms: _415  and  _417
REMARK  165  A    between atoms: _417  and  _418
REMARK  166  A    between atoms: _417  and  _420
REMARK  167  A    between atoms: _420  and  _421
REMARK  168  A    between atoms: _424  and  _426
REMARK  169  A    between atoms: _426  and  _427
REMARK  170  A    between atoms: _426  and  _429
REMARK  171  A    between atoms: _429  and  _430
REMARK  172  A    between atoms: _435  and  _436
REMARK  173  A    between atoms: _438  and  _440
REMARK  174  A    between atoms: _440  and  _441
REMARK  175  A    between atoms: _440  and  _443
REMARK  176  A    between atoms: _443  and  _444
REMARK  177  A    between atoms: _444  and  _445
REMARK  178  A    between atoms: _450  and  _452
REMARK  179  A    between atoms: _452  and  _453
REMARK  180  A    between atoms: _452  and  _455
REMARK  181  A    between atoms: _455  and  _456
REMARK  182  A    between atoms: _459  and  _461
REMARK  183  A    between atoms: _461  and  _462
REMARK  184  A    between atoms: _461  and  _464
REMARK  185  A    between atoms: _464  and  _465
REMARK  186  A    between atoms: _468  and  _470
REMARK  187  A    between atoms: _470  and  _471
REMARK  188  A    between atoms: _470  and  _473
REMARK  189  A    between atoms: _476  and  _478
REMARK  190  A    between atoms: _478  and  _479
REMARK  191  A    between atoms: _478  and  _481
REMARK  192  A    between atoms: _485  and  _486
REMARK  193  A    between atoms: _491  and  _493
REMARK  194  A    between atoms: _493  and  _494
REMARK  195  A    between atoms: _493  and  _496
REMARK  196  A    between atoms: _496  and  _497
REMARK  197  A    between atoms: _500  and  _502
REMARK  198  A    between atoms: _502  and  _503
REMARK  199  A    between atoms: _502  and  _505
REMARK  200  A    between atoms: _508  and  _510
REMARK  201  A    between atoms: _510  and  _511
REMARK  202  A    between atoms: _510  and  _513
REMARK  203  A    between atoms: _513  and  _514
REMARK  204  A    between atoms: _514  and  _515
REMARK  205  A    between atoms: _515  and  _516
REMARK  206  A    between atoms: _525  and  _527
REMARK  207  A    between atoms: _527  and  _528
REMARK  208  A    between atoms: _527  and  _530
REMARK  209  A    between atoms: _530  and  _531
REMARK  210  A    between atoms: _531  and  _532
REMARK  211  A    between atoms: _535  and  _537
REMARK  212  A    between atoms: _537  and  _538
REMARK  213  A    between atoms: _537  and  _540
REMARK  214  A    between atoms: _540  and  _541
REMARK  215  A    between atoms: _544  and  _546
REMARK  216  A    between atoms: _546  and  _547
REMARK  217  A    between atoms: _550  and  _552
REMARK  218  A    between atoms: _552  and  _553
REMARK  219  A    between atoms: _552  and  _555
REMARK  220  A    between atoms: _555  and  _556
REMARK  221  A    between atoms: _556  and  _557
REMARK  222  A    between atoms: _559  and  _561
REMARK  223  A    between atoms: _561  and  _562
REMARK  224  A    between atoms: _561  and  _564
REMARK  225  A    between atoms: _564  and  _565
REMARK  226  A    between atoms: _567  and  _569
REMARK  227  A    between atoms: _569  and  _570
REMARK  228  A    between atoms: _569  and  _572
REMARK  229  A    between atoms: _572  and  _573
REMARK  230  A    between atoms: _575  and  _577
REMARK  231  A    between atoms: _577  and  _578
REMARK  232  A    between atoms: _577  and  _580
REMARK  233  A    between atoms: _580  and  _581
REMARK  234  A    between atoms: _581  and  _582
REMARK  235  A    between atoms: _582  and  _583
REMARK  236  A    between atoms: _592  and  _594
REMARK  237  A    between atoms: _594  and  _595
REMARK  238  A    between atoms: _594  and  _597
REMARK  239  A    between atoms: _597  and  _598
REMARK  240  A    between atoms: _603  and  _605
REMARK  241  A    between atoms: _605  and  _606
REMARK  242  A    between atoms: _605  and  _608
REMARK  243  A    between atoms: _608  and  _609
REMARK  244  A    between atoms: _612  and  _614
REMARK  245  A    between atoms: _614  and  _615
REMARK  246  A    between atoms: _614  and  _617
REMARK  247  A    between atoms: _617  and  _618
REMARK  248  A    between atoms: _621  and  _623
REMARK  249  A    between atoms: _623  and  _624
REMARK  250  A    between atoms: _623  and  _626
REMARK  251  A    between atoms: _626  and  _627
REMARK                            x       y       z     vdW  Elec       q    Type
REMARK                         _______ _______ _______ _____ _____    ______ ____
ROOT
ATOM      1  CA  VAL A   1       4.068   3.311   0.320  0.00  0.00    +0.133 C 
ENDROOT
BRANCH   1   2
ATOM      2  CB  VAL A   1       3.122   4.488  -0.021  0.00  0.00    +0.023 C 
ATOM      3  CG2 VAL A   1       1.706   4.201   0.516  0.00  0.00    +0.002 C 
ATOM      4  CG1 VAL A   1       3.097   4.728  -1.522  0.00  0.00    +0.002 C 
ENDBRANCH   1   2
BRANCH   1   5
ATOM      5  N   VAL A   1       4.085   3.046   1.750  0.00  0.00    -0.239 NA
ATOM      6  H   VAL A   1       4.267   3.835   2.403  0.00  0.00    +0.142 HD
ENDBRANCH   1   5
BRANCH   1   7
ATOM      7  C   VAL A   1       5.464   3.593  -0.195  0.00  0.00    +0.224 C 
ATOM      8  O   VAL A   1       6.085   4.576   0.201  0.00  0.00    -0.287 OA
ENDBRANCH   1   7
TORSDOF 3
REMARK  Name = ../refined-set-2016/3iod/3iod_pocket.pdb
REMARK  251 active torsions:
REMARK  status: ('A' for Active; 'I' for Inactive)
REMARK    1  A    between atoms: _1  and  _3
REMARK    2  A    between atoms: _3  and  _4
REMARK    3  A    between atoms: _3  and  _6
REMARK    4  A    between atoms: _6  and  _7
REMARK    5  A    between atoms: _10  and  _12
REMARK    6  A    between atoms: _12  and  _13
REMARK    7  A    between atoms: _12  and  _15
REMARK    8  A    between atoms: _19  and  _20
REMARK    9  A    between atoms: _25  and  _27
REMARK   10  A    between atoms: _27  and  _28
REMARK   11  A    between atoms: _27  and  _30
REMARK   12  A    between atoms: _30  and  _31
REMARK   13  A    between atoms: _34  and  _36
REMARK   14  A    between atoms: _36  and  _37
REMARK   15  A    between atoms: _36  and  _39
REMARK   16  A    between atoms: _39  and  _40
REMARK   17  A    between atoms: _40  and  _41
REMARK   18  A    between atoms: _43  and  _45
REMARK   19  A    between atoms: _45  and  _46
REMARK   20  A    between atoms: _48  and  _50
REMARK   21  A    between atoms: _50  and  _51
REMARK   22  A    between atoms: _54  and  _56
REMARK   23  A    between atoms: _56  and  _57
REMARK   24  A    between atoms: _56  and  _59
REMARK   25  A    between atoms: _59  and  _60
REMARK   26  A    between atoms: _63  and  _65
REMARK   27  A    between atoms: _65  and  _66
REMARK   28  A    between atoms: _65  and  _68
REMARK   29  A    between atoms: _68  and  _69
REMARK   30  A    between atoms: _74  and  _76
REMARK   31  A    between atoms: _76  and  _77
REMARK   32  A    between atoms: _76  and  _79
REMARK   33  A    between atoms: _79  and  _80
REMARK   34  A    between atoms: _80  and  _81
REMARK   35  A    between atoms: _84  and  _86
REMARK   36  A    between atoms: _86  and  _87
REMARK   37  A    between atoms: _89  and  _91
REMARK   38  A    between atoms: _91  and  _92
REMARK   39  A    between atoms: _91  and  _94
REMARK   40  A    between atoms: _94  and  _95
REMARK   41  A    between atoms: _100  and  _102
REMARK   42  A    between atoms: _102  and  _103
REMARK   43  A    between atoms: _102  and  _105
REMARK   44  A    between atoms: _105  and  _106
REMARK   45  A    between atoms: _109  and  _111
REMARK   46  A    between atoms: _111  and  _112
REMARK   47  A    between atoms: _115  and  _117
REMARK   48  A    between atoms: _117  and  _118
REMARK   49  A    between atoms: _117  and  _120
REMARK   50  A    between atoms: _120  and  _121
REMARK   51  A    between atoms: _124  and  _126
REMARK   52  A    between atoms: _126  and  _127
REMARK   53  A    between atoms: _126  and  _129
REMARK   54  A    between atoms: _132  and  _134
REMARK   55  A    between atoms: _134  and  _135
REMARK   56  A    between atoms: _134  and  _137
REMARK   57  A    between atoms: _140  and  _142
REMARK   58  A    between atoms: _142  and  _143
REMARK   59  A    between atoms: _142  and  _145
REMARK   60  A    between atoms: _145  and  _146
REMARK   61  A    between atoms: _148  and  _150
REMARK   62  A    between atoms: _150  and  _151
REMARK   63  A    between atoms: _150  and  _153
REMARK   64  A    between atoms: _153  and  _154
REMARK   65  A    between atoms: _157  and  _159
REMARK   66  A    between atoms: _159  and  _160
REMARK   67  A    between atoms: _159  and  _162
REMARK   68  A    between atoms: _162  and  _163
REMARK   69  A    between atoms: _169  and  _171
REMARK   70  A    between atoms: _171  and  _172
REMARK   71  A    between atoms: _171  and  _174
REMARK   72  A    between atoms: _177  and  _179
REMARK   73  A    between atoms: _179  and  _180
REMARK   74  A    between atoms: _179  and  _182
REMARK   75  A    between atoms: _182  and  _183
REMARK   76  A    between atoms: _189  and  _190
REMARK   77  A    between atoms: _195  and  _197
REMARK   78  A    between atoms: _197  and  _198
REMARK   79  A    between atoms: _197  and  _200
REMARK   80  A    between atoms: _200  and  _201
REMARK   81  A    between atoms: _201  and  _202
REMARK   82  A    between atoms: _204  and  _206
REMARK   83  A    between atoms: _206  and  _207
REMARK   84  A    between atoms: _206  and  _209
REMARK   85  A    between atoms: _209  and  _210
REMARK   86  A    between atoms: _210  and  _211
REMARK   87  A    between atoms: _216  and  _218
REMARK   88  A    between atoms: _218  and  _219
REMARK   89  A    between atoms: _218  and  _221
REMARK   90  A    between atoms: _221  and  _222
REMARK   91  A    between atoms: _228  and  _230
REMARK   92  A    between atoms: _230  and  _231
REMARK   93  A    between atoms: _230  and  _233
REMARK   94  A    between atoms: _233  and  _234
REMARK   95  A    between atoms: _239  and  _240
REMARK   96  A    between atoms: _242  and  _244
REMARK   97  A    between atoms: _244  and  _245
REMARK   98  A    between atoms: _244  and  _247
REMARK   99  A    between atoms: _247  and  _248
REMARK  100  A    between atoms: _255  and  _256
REMARK  101  A    between atoms: _261  and  _263
REMARK  102  A    between atoms: _263  and  _264
REMARK  103  A    between atoms: _263  and  _266
REMARK  104  A    between atoms: _266  and  _267
REMARK  105  A    between atoms: _267  and  _268
REMARK  106  A    between atoms: _270  and  _272
REMARK  107  A    between atoms: _272  and  _273
REMARK  108  A    between atoms: _272  and  _275
REMARK  109  A    between atoms: _275  and  _276
REMARK  110  A    between atoms: _281  and  _282
REMARK  111  A    between atoms: _284  and  _286
REMARK  112  A    between atoms: _286  and  _287
REMARK  113  A    between atoms: _286  and  _289
REMARK  114  A    between atoms: _289  and  _290
REMARK  115  A    between atoms: _295  and  _297
REMARK  116  A    between atoms: _297  and  _298
REMARK  117  A    between atoms: _297  and  _300
REMARK  118  A    between atoms: _300  and  _301
REMARK  119  A    between atoms: _307  and  _309
REMARK  120  A    between atoms: _309  and  _310
REMARK  121  A    between atoms: _312  and  _314
REMARK  122  A    between atoms: _314  and  _315
REMARK  123  A    between atoms: _314  and  _317
REMARK  124  A    between atoms: _320  and  _322
REMARK  125  A    between atoms: _322  and  _323
REMARK  126  A    between atoms: _322  and  _325
REMARK  127  A    between atoms: _325  and  _326
REMARK  128  A    between atoms: _329  and  _331
REMARK  129  A    between atoms: _331  and  _332
REMARK  130  A    between atoms: _331  and  _334
REMARK  131  A    between atoms: _334  and  _335
REMARK  132  A    between atoms: _338  and  _340
REMARK  133  A    between atoms: _340  and  _341
REMARK  134  A    between atoms: _340  and  _343
REMARK  135  A    between atoms: _346  and  _348
REMARK  136  A    between atoms: _348  and  _349
REMARK  137  A    between atoms: _348  and  _351
REMARK  138  A    between atoms: _354  and  _356
REMARK  139  A    between atoms: _356  and  _357
REMARK  140  A    between atoms: _356  and  _359
REMARK  141  A    between atoms: _359  and  _360
REMARK  142  A    between atoms: _363  and  _365
REMARK  143  A    between atoms: _365  and  _366
REMARK  144  A    between atoms: _365  and  _368
REMARK  145  A    between atoms: _368  and  _369
REMARK  146  A    between atoms: _375  and  _377
REMARK  147  A    between atoms: _377  and  _378
REMARK  148  A    between atoms: _377  and  _380
REMARK  149  A    between atoms: _380  and  _381
REMARK  150  A    between atoms: _387  and  _389
REMARK  151  A    between atoms: _389  and  _390
REMARK  152  A    between atoms: _392  and  _394
REMARK  153  A    between atoms: _394  and  _395
REMARK  154  A    between atoms: _394  and  _397
REMARK  155  A    between atoms: _397  and  _398
REMARK  156  A    between atoms: _398  and  _399
REMARK  157  A    between atoms: _402  and  _404
REMARK  158  A    between atoms: _404  and  _405
REMARK  159  A    between atoms: _404  and  _407
REMARK  160  A    between atoms: _407  and  _408
REMARK  161  A    between atoms: _408  and  _409
REMARK  162  A    between atoms: _409  and  _410
REMARK  163  A    between atoms: _410  and  _411
REMARK  164  A    between atoms: _415  and  _417
REMARK  165  A    between atoms: _417  and  _418
REMARK  166  A    between atoms: _417  and  _420
REMARK  167  A    between atoms: _420  and  _421
REMARK  168  A    between atoms: _424  and  _426
REMARK  169  A    between atoms: _426  and  _427
REMARK  170  A    between atoms: _426  and  _429
REMARK  171  A    between atoms: _429  and  _430
REMARK  172  A    between atoms: _435  and  _436
REMARK  173  A    between atoms: _438  and  _440
REMARK  174  A    between atoms: _440  and  _441
REMARK  175  A    between atoms: _440  and  _443
REMARK  176  A    between atoms: _443  and  _444
REMARK  177  A    between atoms: _444  and  _445
REMARK  178  A    between atoms: _450  and  _452
REMARK  179  A    between atoms: _452  and  _453
REMARK  180  A    between atoms: _452  and  _455
REMARK  181  A    between atoms: _455  and  _456
REMARK  182  A    between atoms: _459  and  _461
REMARK  183  A    between atoms: _461  and  _462
REMARK  184  A    between atoms: _461  and  _464
REMARK  185  A    between atoms: _464  and  _465
REMARK  186  A    between atoms: _468  and  _470
REMARK  187  A    between atoms: _470  and  _471
REMARK  188  A    between atoms: _470  and  _473
REMARK  189  A    between atoms: _476  and  _478
REMARK  190  A    between atoms: _478  and  _479
REMARK  191  A    between atoms: _478  and  _481
REMARK  192  A    between atoms: _485  and  _486
REMARK  193  A    between atoms: _491  and  _493
REMARK  194  A    between atoms: _493  and  _494
REMARK  195  A    between atoms: _493  and  _496
REMARK  196  A    between atoms: _496  and  _497
REMARK  197  A    between atoms: _500  and  _502
REMARK  198  A    between atoms: _502  and  _503
REMARK  199  A    between atoms: _502  and  _505
REMARK  200  A    between atoms: _508  and  _510
REMARK  201  A    between atoms: _510  and  _511
REMARK  202  A    between atoms: _510  and  _513
REMARK  203  A    between atoms: _513  and  _514
REMARK  204  A    between atoms: _514  and  _515
REMARK  205  A    between atoms: _515  and  _516
REMARK  206  A    between atoms: _525  and  _527
REMARK  207  A    between atoms: _527  and  _528
REMARK  208  A    between atoms: _527  and  _530
REMARK  209  A    between atoms: _530  and  _531
REMARK  210  A    between atoms: _531  and  _532
REMARK  211  A    between atoms: _535  and  _537
REMARK  212  A    between atoms: _537  and  _538
REMARK  213  A    between atoms: _537  and  _540
REMARK  214  A    between atoms: _540  and  _541
REMARK  215  A    between atoms: _544  and  _546
REMARK  216  A    between atoms: _546  and  _547
REMARK  217  A    between atoms: _550  and  _552
REMARK  218  A    between atoms: _552  and  _553
REMARK  219  A    between atoms: _552  and  _555
REMARK  220  A    between atoms: _555  and  _556
REMARK  221  A    between atoms: _556  and  _557
REMARK  222  A    between atoms: _559  and  _561
REMARK  223  A    between atoms: _561  and  _562
REMARK  224  A    between atoms: _561  and  _564
REMARK  225  A    between atoms: _564  and  _565
REMARK  226  A    between atoms: _567  and  _569
REMARK  227  A    between atoms: _569  and  _570
REMARK  228  A    between atoms: _569  and  _572
REMARK  229  A    between atoms: _572  and  _573
REMARK  230  A    between atoms: _575  and  _577
REMARK  231  A    between atoms: _577  and  _578
REMARK  232  A    between atoms: _577  and  _580
REMARK  233  A    between atoms: _580  and  _581
REMARK  234  A    between atoms: _581  and  _582
REMARK  235  A    between atoms: _582  and  _583
REMARK  236  A    between atoms: _592  and  _594
REMARK  237  A    between atoms: _594  and  _595
REMARK  238  A    between atoms: _594  and  _597
REMARK  239  A    between atoms: _597  and  _598
REMARK  240  A    between atoms: _603  and  _605
REMARK  241  A    between atoms: _605  and  _606
REMARK  242  A    between atoms: _605  and  _608
REMARK  243  A    between atoms: _608  and  _609
REMARK  244  A    between atoms: _612  and  _614
REMARK  245  A    between atoms: _614  and  _615
REMARK  246  A    between atoms: _614  and  _617
REMARK  247  A    between atoms: _617  and  _618
REMARK  248  A    between atoms: _621  and  _623
REMARK  249  A    between atoms: _623  and  _624
REMARK  250  A    between atoms: _623  and  _626
REMARK  251  A    between atoms: _626  and  _627
REMARK                            x       y       z     vdW  Elec       q    Type
REMARK                         _______ _______ _______ _____ _____    ______ ____
ROOT
ATOM      1  CA  VAL A   4      13.299  10.341  -9.220  0.00  0.00    +0.149 C 
ENDROOT
BRANCH   1   2
ATOM      2  C   VAL A   4      14.737  10.534  -9.669  0.00  0.00    +0.241 C 
ATOM      3  O   VAL A   4      15.673  10.516  -8.856  0.00  0.00    -0.273 OA
ATOM      4  N   ARG A   5      14.905  10.698 -10.981  0.00  0.00    -0.297 N 
ATOM      5  H   ARG A   5      14.068  10.822 -11.586  0.00  0.00    +0.150 HD
BRANCH   4   6
ATOM      6  CA  ARG A   5      16.221  10.708 -11.588  0.00  0.00    +0.149 C 
BRANCH   6   7
ATOM      7  C   ARG A   5      16.447  11.990 -12.383  0.00  0.00    +0.241 C 
ATOM      8  N   GLU A   6      17.708  12.418 -12.432  0.00  0.00    -0.298 N 
ATOM      9  H   GLU A   6      18.414  11.984 -11.804  0.00  0.00    +0.150 HD
ATOM     10  O   ARG A   5      15.503  12.568 -12.922  0.00  0.00    -0.273 OA
BRANCH   8  11
ATOM     11  CA  GLU A   6      18.125  13.480 -13.344  0.00  0.00    +0.137 C 
BRANCH  11  12
ATOM     12  C   GLU A   6      17.949  12.983 -14.785  0.00  0.00    +0.227 C 
ATOM     13  O   GLU A   6      17.714  11.789 -15.018  0.00  0.00    -0.286 OA
ENDBRANCH  11  12
BRANCH  11  14
ATOM     14  CB  GLU A   6      19.579  13.891 -13.083  0.00  0.00    +0.039 C 
BRANCH  14  15
ATOM     15  CG  GLU A   6      19.888  14.346 -11.680  0.00  0.00    +0.116 C 
BRANCH  15  16
ATOM     16  CD  GLU A   6      19.294  15.711 -11.332  0.00  0.00    +0.365 C 
ATOM     17  OE2 GLU A   6      19.490  16.131 -10.175  0.00  0.00    -0.246 OA
ATOM     18  OE1 GLU A   6      18.643  16.361 -12.192  0.00  0.00    -0.246 OA
ENDBRANCH  15  16
ENDBRANCH  14  15
ENDBRANCH  11  14
ENDBRANCH   8  11
ENDBRANCH   6   7
BRANCH   6  19
ATOM     19  CB  ARG A   5      16.371   9.505 -12.520  0.00  0.00    +0.033 C 
BRANCH  19  20
ATOM     20  CG  ARG A   5      16.371   8.162 -11.766  0.00  0.00    +0.045 C 
BRANCH  20  21
ATOM     21  CD  ARG A   5      16.461   6.957 -12.698  0.00  0.00    +0.174 C 
BRANCH  21  22
ATOM     22  NE  ARG A   5      16.450   5.719 -11.896  0.00  0.00    -0.265 N 
ATOM     23  CZ  ARG A   5      17.502   5.227 -11.248  0.00  0.00    +0.342 C 
ATOM     24  NH2 ARG A   5      17.369   4.104 -10.528  0.00  0.00    -0.292 N 
ATOM     25 HH21 ARG A   5      18.187   3.713 -10.018  0.00  0.00    +0.255 HD
ATOM     26 HH22 ARG A   5      16.448   3.624 -10.479  0.00  0.00    +0.255 HD
ATOM     27  NH1 ARG A   5      18.684   5.847 -11.293  0.00  0.00    -0.292 N 
ATOM     28 HH11 ARG A   5      19.499   5.451 -10.782  0.00  0.00    +0.255 HD
ATOM     29 HH12 ARG A   5      18.790   6.725 -11.839  0.00  0.00    +0.255 HD
ATOM     30  HE  ARG A   5      15.555   5.193 -11.833  0.00  0.00    +0.259 HD
ENDBRANCH  21  22
ENDBRANCH  20  21
ENDBRANCH  19  20
ENDBRANCH   6  19
ENDBRANCH   4   6
ENDBRANCH   1   2
BRANCH   1  32
ATOM     31  C   THR A   3      13.145   7.984  -8.617  0.00  0.00    +0.243 C 
ATOM     32  N   VAL A   4      13.289   9.248  -8.251  0.00  0.00    -0.297 N 
ATOM     33  H   VAL A   4      13.399   9.470  -7.241  0.00  0.00    +0.150 HD
ATOM     34  O   THR A   3      12.863   7.638  -9.776  0.00  0.00    -0.273 OA
BRANCH  31  35
ATOM     35  CA  THR A   3      13.287   6.944  -7.488  0.00  0.00    +0.176 C 
BRANCH  35  38
ATOM     36  C   PRO A   2      10.919   6.326  -7.341  0.00  0.00    +0.241 C 
ATOM     37  O   PRO A   2      10.551   7.495  -7.143  0.00  0.00    -0.273 OA
ATOM     38  N   THR A   3      12.188   5.977  -7.497  0.00  0.00    -0.295 N 
ATOM     39  H   THR A   3      12.413   4.971  -7.632  0.00  0.00    +0.150 HD
BRANCH  36  46
ATOM     40  C   VAL A   1       8.966   5.534  -5.207  0.00  0.00    +0.241 C 
ATOM     41  O   VAL A   1      10.111   5.562  -4.733  0.00  0.00    -0.273 OA
ATOM     42  N   PRO A   2       8.750   5.353  -6.526  0.00  0.00    -0.272 N 
ATOM     43  CD  PRO A   2       7.484   5.283  -7.287  0.00  0.00    +0.094 C 
ATOM     44  CG  PRO A   2       7.902   4.528  -8.532  0.00  0.00    +0.024 C 
ATOM     45  CB  PRO A   2       9.274   5.053  -8.799  0.00  0.00    +0.031 C 
ATOM     46  CA  PRO A   2       9.908   5.172  -7.398  0.00  0.00    +0.152 C 
BRANCH  40  47
ATOM     47  CA  VAL A   1       7.732   5.662  -4.301  0.00  0.00    +0.145 C 
BRANCH  47  48
ATOM     48  CB  VAL A   1       7.523   7.120  -3.826  0.00  0.00    +0.025 C 
ATOM     49  CG2 VAL A   1       6.277   7.230  -2.971  0.00  0.00    +0.002 C 
ATOM     50  CG1 VAL A   1       7.462   8.104  -5.014  0.00  0.00    +0.002 C 
ENDBRANCH  47  48
BRANCH  47  51
ATOM     51  N   VAL A   1       7.865   4.766  -3.155  0.00  0.00    -0.238 NA
ATOM     52  H   VAL A   1       8.609   4.953  -2.452  0.00  0.00    +0.142 HD
ENDBRANCH  47  51
ENDBRANCH  40  47
ENDBRANCH  36  46
ENDBRANCH  35  38
BRANCH  35  53
ATOM     53  CB  THR A   3      14.627   6.193  -7.617  0.00  0.00    +0.137 C 
ATOM     54  CG2 THR A   3      15.793   7.129  -7.613  0.00  0.00    +0.034 C 
BRANCH  53  55
ATOM     55  OG1 THR A   3      14.748   5.243  -6.536  0.00  0.00    -0.382 OA
ATOM     56  HG1 THR A   3      15.608   4.760  -6.618  0.00  0.00    +0.210 HD
ENDBRANCH  53  55
ENDBRANCH  35  53
ENDBRANCH  31  35
ENDBRANCH   1  32
BRANCH   1  57
ATOM     57  CB  VAL A   4      12.724  11.653  -8.630  0.00  0.00    +0.027 C 
ATOM     58  CG2 VAL A   4      11.314  11.424  -8.125  0.00  0.00    +0.002 C 
ATOM     59  CG1 VAL A   4      12.737  12.762  -9.686  0.00  0.00    +0.002 C 
ENDBRANCH   1  57
TORSDOF 22
REMARK  Name = ../refined-set-2016/3iod/3iod_pocket.pdb
REMARK  251 active torsions:
REMARK  status: ('A' for Active; 'I' for Inactive)
REMARK    1  A    between atoms: _1  and  _3
REMARK    2  A    between atoms: _3  and  _4
REMARK    3  A    between atoms: _3  and  _6
REMARK    4  A    between atoms: _6  and  _7
REMARK    5  A    between atoms: _10  and  _12
REMARK    6  A    between atoms: _12  and  _13
REMARK    7  A    between atoms: _12  and  _15
REMARK    8  A    between atoms: _19  and  _20
REMARK    9  A    between atoms: _25  and  _27
REMARK   10  A    between atoms: _27  and  _28
REMARK   11  A    between atoms: _27  and  _30
REMARK   12  A    between atoms: _30  and  _31
REMARK   13  A    between atoms: _34  and  _36
REMARK   14  A    between atoms: _36  and  _37
REMARK   15  A    between atoms: _36  and  _39
REMARK   16  A    between atoms: _39  and  _40
REMARK   17  A    between atoms: _40  and  _41
REMARK   18  A    between atoms: _43  and  _45
REMARK   19  A    between atoms: _45  and  _46
REMARK   20  A    between atoms: _48  and  _50
REMARK   21  A    between atoms: _50  and  _51
REMARK   22  A    between atoms: _54  and  _56
REMARK   23  A    between atoms: _56  and  _57
REMARK   24  A    between atoms: _56  and  _59
REMARK   25  A    between atoms: _59  and  _60
REMARK   26  A    between atoms: _63  and  _65
REMARK   27  A    between atoms: _65  and  _66
REMARK   28  A    between atoms: _65  and  _68
REMARK   29  A    between atoms: _68  and  _69
REMARK   30  A    between atoms: _74  and  _76
REMARK   31  A    between atoms: _76  and  _77
REMARK   32  A    between atoms: _76  and  _79
REMARK   33  A    between atoms: _79  and  _80
REMARK   34  A    between atoms: _80  and  _81
REMARK   35  A    between atoms: _84  and  _86
REMARK   36  A    between atoms: _86  and  _87
REMARK   37  A    between atoms: _89  and  _91
REMARK   38  A    between atoms: _91  and  _92
REMARK   39  A    between atoms: _91  and  _94
REMARK   40  A    between atoms: _94  and  _95
REMARK   41  A    between atoms: _100  and  _102
REMARK   42  A    between atoms: _102  and  _103
REMARK   43  A    between atoms: _102  and  _105
REMARK   44  A    between atoms: _105  and  _106
REMARK   45  A    between atoms: _109  and  _111
REMARK   46  A    between atoms: _111  and  _112
REMARK   47  A    between atoms: _115  and  _117
REMARK   48  A    between atoms: _117  and  _118
REMARK   49  A    between atoms: _117  and  _120
REMARK   50  A    between atoms: _120  and  _121
REMARK   51  A    between atoms: _124  and  _126
REMARK   52  A    between atoms: _126  and  _127
REMARK   53  A    between atoms: _126  and  _129
REMARK   54  A    between atoms: _132  and  _134
REMARK   55  A    between atoms: _134  and  _135
REMARK   56  A    between atoms: _134  and  _137
REMARK   57  A    between atoms: _140  and  _142
REMARK   58  A    between atoms: _142  and  _143
REMARK   59  A    between atoms: _142  and  _145
REMARK   60  A    between atoms: _145  and  _146
REMARK   61  A    between atoms: _148  and  _150
REMARK   62  A    between atoms: _150  and  _151
REMARK   63  A    between atoms: _150  and  _153
REMARK   64  A    between atoms: _153  and  _154
REMARK   65  A    between atoms: _157  and  _159
REMARK   66  A    between atoms: _159  and  _160
REMARK   67  A    between atoms: _159  and  _162
REMARK   68  A    between atoms: _162  and  _163
REMARK   69  A    between atoms: _169  and  _171
REMARK   70  A    between atoms: _171  and  _172
REMARK   71  A    between atoms: _171  and  _174
REMARK   72  A    between atoms: _177  and  _179
REMARK   73  A    between atoms: _179  and  _180
REMARK   74  A    between atoms: _179  and  _182
REMARK   75  A    between atoms: _182  and  _183
REMARK   76  A    between atoms: _189  and  _190
REMARK   77  A    between atoms: _195  and  _197
REMARK   78  A    between atoms: _197  and  _198
REMARK   79  A    between atoms: _197  and  _200
REMARK   80  A    between atoms: _200  and  _201
REMARK   81  A    between atoms: _201  and  _202
REMARK   82  A    between atoms: _204  and  _206
REMARK   83  A    between atoms: _206  and  _207
REMARK   84  A    between atoms: _206  and  _209
REMARK   85  A    between atoms: _209  and  _210
REMARK   86  A    between atoms: _210  and  _211
REMARK   87  A    between atoms: _216  and  _218
REMARK   88  A    between atoms: _218  and  _219
REMARK   89  A    between atoms: _218  and  _221
REMARK   90  A    between atoms: _221  and  _222
REMARK   91  A    between atoms: _228  and  _230
REMARK   92  A    between atoms: _230  and  _231
REMARK   93  A    between atoms: _230  and  _233
REMARK   94  A    between atoms: _233  and  _234
REMARK   95  A    between atoms: _239  and  _240
REMARK   96  A    between atoms: _242  and  _244
REMARK   97  A    between atoms: _244  and  _245
REMARK   98  A    between atoms: _244  and  _247
REMARK   99  A    between atoms: _247  and  _248
REMARK  100  A    between atoms: _255  and  _256
REMARK  101  A    between atoms: _261  and  _263
REMARK  102  A    between atoms: _263  and  _264
REMARK  103  A    between atoms: _263  and  _266
REMARK  104  A    between atoms: _266  and  _267
REMARK  105  A    between atoms: _267  and  _268
REMARK  106  A    between atoms: _270  and  _272
REMARK  107  A    between atoms: _272  and  _273
REMARK  108  A    between atoms: _272  and  _275
REMARK  109  A    between atoms: _275  and  _276
REMARK  110  A    between atoms: _281  and  _282
REMARK  111  A    between atoms: _284  and  _286
REMARK  112  A    between atoms: _286  and  _287
REMARK  113  A    between atoms: _286  and  _289
REMARK  114  A    between atoms: _289  and  _290
REMARK  115  A    between atoms: _295  and  _297
REMARK  116  A    between atoms: _297  and  _298
REMARK  117  A    between atoms: _297  and  _300
REMARK  118  A    between atoms: _300  and  _301
REMARK  119  A    between atoms: _307  and  _309
REMARK  120  A    between atoms: _309  and  _310
REMARK  121  A    between atoms: _312  and  _314
REMARK  122  A    between atoms: _314  and  _315
REMARK  123  A    between atoms: _314  and  _317
REMARK  124  A    between atoms: _320  and  _322
REMARK  125  A    between atoms: _322  and  _323
REMARK  126  A    between atoms: _322  and  _325
REMARK  127  A    between atoms: _325  and  _326
REMARK  128  A    between atoms: _329  and  _331
REMARK  129  A    between atoms: _331  and  _332
REMARK  130  A    between atoms: _331  and  _334
REMARK  131  A    between atoms: _334  and  _335
REMARK  132  A    between atoms: _338  and  _340
REMARK  133  A    between atoms: _340  and  _341
REMARK  134  A    between atoms: _340  and  _343
REMARK  135  A    between atoms: _346  and  _348
REMARK  136  A    between atoms: _348  and  _349
REMARK  137  A    between atoms: _348  and  _351
REMARK  138  A    between atoms: _354  and  _356
REMARK  139  A    between atoms: _356  and  _357
REMARK  140  A    between atoms: _356  and  _359
REMARK  141  A    between atoms: _359  and  _360
REMARK  142  A    between atoms: _363  and  _365
REMARK  143  A    between atoms: _365  and  _366
REMARK  144  A    between atoms: _365  and  _368
REMARK  145  A    between atoms: _368  and  _369
REMARK  146  A    between atoms: _375  and  _377
REMARK  147  A    between atoms: _377  and  _378
REMARK  148  A    between atoms: _377  and  _380
REMARK  149  A    between atoms: _380  and  _381
REMARK  150  A    between atoms: _387  and  _389
REMARK  151  A    between atoms: _389  and  _390
REMARK  152  A    between atoms: _392  and  _394
REMARK  153  A    between atoms: _394  and  _395
REMARK  154  A    between atoms: _394  and  _397
REMARK  155  A    between atoms: _397  and  _398
REMARK  156  A    between atoms: _398  and  _399
REMARK  157  A    between atoms: _402  and  _404
REMARK  158  A    between atoms: _404  and  _405
REMARK  159  A    between atoms: _404  and  _407
REMARK  160  A    between atoms: _407  and  _408
REMARK  161  A    between atoms: _408  and  _409
REMARK  162  A    between atoms: _409  and  _410
REMARK  163  A    between atoms: _410  and  _411
REMARK  164  A    between atoms: _415  and  _417
REMARK  165  A    between atoms: _417  and  _418
REMARK  166  A    between atoms: _417  and  _420
REMARK  167  A    between atoms: _420  and  _421
REMARK  168  A    between atoms: _424  and  _426
REMARK  169  A    between atoms: _426  and  _427
REMARK  170  A    between atoms: _426  and  _429
REMARK  171  A    between atoms: _429  and  _430
REMARK  172  A    between atoms: _435  and  _436
REMARK  173  A    between atoms: _438  and  _440
REMARK  174  A    between atoms: _440  and  _441
REMARK  175  A    between atoms: _440  and  _443
REMARK  176  A    between atoms: _443  and  _444
REMARK  177  A    between atoms: _444  and  _445
REMARK  178  A    between atoms: _450  and  _452
REMARK  179  A    between atoms: _452  and  _453
REMARK  180  A    between atoms: _452  and  _455
REMARK  181  A    between atoms: _455  and  _456
REMARK  182  A    between atoms: _459  and  _461
REMARK  183  A    between atoms: _461  and  _462
REMARK  184  A    between atoms: _461  and  _464
REMARK  185  A    between atoms: _464  and  _465
REMARK  186  A    between atoms: _468  and  _470
REMARK  187  A    between atoms: _470  and  _471
REMARK  188  A    between atoms: _470  and  _473
REMARK  189  A    between atoms: _476  and  _478
REMARK  190  A    between atoms: _478  and  _479
REMARK  191  A    between atoms: _478  and  _481
REMARK  192  A    between atoms: _485  and  _486
REMARK  193  A    between atoms: _491  and  _493
REMARK  194  A    between atoms: _493  and  _494
REMARK  195  A    between atoms: _493  and  _496
REMARK  196  A    between atoms: _496  and  _497
REMARK  197  A    between atoms: _500  and  _502
REMARK  198  A    between atoms: _502  and  _503
REMARK  199  A    between atoms: _502  and  _505
REMARK  200  A    between atoms: _508  and  _510
REMARK  201  A    between atoms: _510  and  _511
REMARK  202  A    between atoms: _510  and  _513
REMARK  203  A    between atoms: _513  and  _514
REMARK  204  A    between atoms: _514  and  _515
REMARK  205  A    between atoms: _515  and  _516
REMARK  206  A    between atoms: _525  and  _527
REMARK  207  A    between atoms: _527  and  _528
REMARK  208  A    between atoms: _527  and  _530
REMARK  209  A    between atoms: _530  and  _531
REMARK  210  A    between atoms: _531  and  _532
REMARK  211  A    between atoms: _535  and  _537
REMARK  212  A    between atoms: _537  and  _538
REMARK  213  A    between atoms: _537  and  _540
REMARK  214  A    between atoms: _540  and  _541
REMARK  215  A    between atoms: _544  and  _546
REMARK  216  A    between atoms: _546  and  _547
REMARK  217  A    between atoms: _550  and  _552
REMARK  218  A    between atoms: _552  and  _553
REMARK  219  A    between atoms: _552  and  _555
REMARK  220  A    between atoms: _555  and  _556
REMARK  221  A    between atoms: _556  and  _557
REMARK  222  A    between atoms: _559  and  _561
REMARK  223  A    between atoms: _561  and  _562
REMARK  224  A    between atoms: _561  and  _564
REMARK  225  A    between atoms: _564  and  _565
REMARK  226  A    between atoms: _567  and  _569
REMARK  227  A    between atoms: _569  and  _570
REMARK  228  A    between atoms: _569  and  _572
REMARK  229  A    between atoms: _572  and  _573
REMARK  230  A    between atoms: _575  and  _577
REMARK  231  A    between atoms: _577  and  _578
REMARK  232  A    between atoms: _577  and  _580
REMARK  233  A    between atoms: _580  and  _581
REMARK  234  A    between atoms: _581  and  _582
REMARK  235  A    between atoms: _582  and  _583
REMARK  236  A    between atoms: _592  and  _594
REMARK  237  A    between atoms: _594  and  _595
REMARK  238  A    between atoms: _594  and  _597
REMARK  239  A    between atoms: _597  and  _598
REMARK  240  A    between atoms: _603  and  _605
REMARK  241  A    between atoms: _605  and  _606
REMARK  242  A    between atoms: _605  and  _608
REMARK  243  A    between atoms: _608  and  _609
REMARK  244  A    between atoms: _612  and  _614
REMARK  245  A    between atoms: _614  and  _615
REMARK  246  A    between atoms: _614  and  _617
REMARK  247  A    between atoms: _617  and  _618
REMARK  248  A    between atoms: _621  and  _623
REMARK  249  A    between atoms: _623  and  _624
REMARK  250  A    between atoms: _623  and  _626
REMARK  251  A    between atoms: _626  and  _627
REMARK                            x       y       z     vdW  Elec       q    Type
REMARK                         _______ _______ _______ _____ _____    ______ ____
ROOT
ATOM      1  C   SER A   4      20.690  13.977  -3.215  0.00  0.00    +0.243 C 
ATOM      2  N   SER A   5      20.499  14.280  -1.929  0.00  0.00    -0.295 N 
ATOM      3  H   SER A   5      19.903  13.670  -1.334  0.00  0.00    +0.150 HD
ATOM      4  O   SER A   4      21.280  14.720  -4.001  0.00  0.00    -0.273 OA
ENDROOT
BRANCH   2   5
ATOM      5  CA  SER A   5      21.130  15.474  -1.356  0.00  0.00    +0.178 C 
BRANCH   5   6
ATOM      6  C   SER A   5      22.665  15.337  -1.377  0.00  0.00    +0.243 C 
ATOM      7  O   SER A   5      23.373  16.346  -1.365  0.00  0.00    -0.273 OA
ATOM      8  N   ARG A   6      23.170  14.101  -1.439  0.00  0.00    -0.297 N 
ATOM      9  H   ARG A   6      22.523  13.288  -1.411  0.00  0.00    +0.150 HD
BRANCH   8  10
ATOM     10  CA  ARG A   6      24.625  13.860  -1.546  0.00  0.00    +0.149 C 
BRANCH  10  11
ATOM     11  C   ARG A   6      25.233  14.206  -2.915  0.00  0.00    +0.241 C 
ATOM     12  O   ARG A   6      26.453  14.323  -3.026  0.00  0.00    -0.273 OA
ATOM     13  N   ASN A   7      24.396  14.372  -3.944  0.00  0.00    -0.298 N 
ATOM     14  H   ASN A   7      23.374  14.262  -3.785  0.00  0.00    +0.150 HD
BRANCH  13  15
ATOM     15  CA  ASN A   7      24.876  14.705  -5.294  0.00  0.00    +0.146 C 
BRANCH  15  16
ATOM     16  C   ASN A   7      25.585  16.055  -5.338  0.00  0.00    +0.227 C 
ATOM     17  O   ASN A   7      26.455  16.277  -6.193  0.00  0.00    -0.286 OA
ENDBRANCH  15  16
BRANCH  15  18
ATOM     18  CB  ASN A   7      23.731  14.710  -6.324  0.00  0.00    +0.112 C 
BRANCH  18  19
ATOM     19  CG  ASN A   7      23.198  13.310  -6.630  0.00  0.00    +0.222 C 
ATOM     20  OD1 ASN A   7      23.760  12.316  -6.193  0.00  0.00    -0.275 OA
ATOM     21  ND2 ASN A   7      22.098  13.239  -7.379  0.00  0.00    -0.329 N 
ATOM     22 HD21 ASN A   7      21.686  12.313  -7.612  0.00  0.00    +0.145 HD
ATOM     23 HD22 ASN A   7      21.651  14.110  -7.731  0.00  0.00    +0.145 HD
ENDBRANCH  18  19
ENDBRANCH  15  18
ENDBRANCH  13  15
ENDBRANCH  10  11
BRANCH  10  24
ATOM     24  CB  ARG A   6      24.988  12.423  -1.154  0.00  0.00    +0.033 C 
BRANCH  24  25
ATOM     25  CG  ARG A   6      25.014  12.191   0.345  0.00  0.00    +0.045 C 
BRANCH  25  26
ATOM     26  CD  ARG A   6      24.611  10.766   0.683  0.00  0.00    +0.174 C 
BRANCH  26  27
ATOM     27  NE  ARG A   6      24.169  10.635   2.075  0.00  0.00    -0.265 N 
ATOM     28  HE  ARG A   6      24.868  10.310   2.773  0.00  0.00    +0.259 HD
ATOM     29  CZ  ARG A   6      22.937  10.902   2.513  0.00  0.00    +0.342 C 
ATOM     30  NH2 ARG A   6      22.648  10.743   3.799  0.00  0.00    -0.292 N 
ATOM     31 HH21 ARG A   6      23.380  10.412   4.459  0.00  0.00    +0.255 HD
ATOM     32 HH22 ARG A   6      21.690  10.950   4.146  0.00  0.00    +0.255 HD
ATOM     33  NH1 ARG A   6      21.994  11.324   1.675  0.00  0.00    -0.292 N 
ATOM     34 HH11 ARG A   6      21.038  11.529   2.029  0.00  0.00    +0.255 HD
ATOM     35 HH12 ARG A   6      22.213  11.449   0.666  0.00  0.00    +0.255 HD
ENDBRANCH  26  27
ENDBRANCH  25  26
ENDBRANCH  24  25
ENDBRANCH  10  24
ENDBRANCH   8  10
ENDBRANCH   5   6
BRANCH   5  36
ATOM     36  CB  SER A   5      20.612  15.753   0.060  0.00  0.00    +0.166 C 
BRANCH  36  37
ATOM     37  OG  SER A   5      20.919  14.678   0.939  0.00  0.00    -0.380 OA
ATOM     38  H   SER A   5      20.574  14.884   1.844  0.00  0.00    +0.211 HD
ENDBRANCH  36  37
ENDBRANCH   5  36
ENDBRANCH   2   5
BRANCH   1  39
ATOM     39  CA  SER A   4      20.148  12.643  -3.696  0.00  0.00    +0.178 C 
BRANCH  39  42
ATOM     40  C   MET A   3      18.784  12.040  -5.619  0.00  0.00    +0.241 C 
ATOM     41  O   MET A   3      18.281  11.096  -5.023  0.00  0.00    -0.273 OA
ATOM     42  N   SER A   4      19.707  12.826  -5.072  0.00  0.00    -0.295 N 
ATOM     43  H   SER A   4      20.124  13.590  -5.641  0.00  0.00    +0.150 HD
BRANCH  40  44
ATOM     44  CA  MET A   3      18.438  12.326  -7.085  0.00  0.00    +0.149 C 
BRANCH  44  47
ATOM     45  C   ALA A   2      19.435  10.359  -8.064  0.00  0.00    +0.241 C 
ATOM     46  O   ALA A   2      20.540  10.725  -7.702  0.00  0.00    -0.273 OA
ATOM     47  N   MET A   3      18.336  11.089  -7.874  0.00  0.00    -0.297 N 
ATOM     48  H   MET A   3      17.425  10.790  -8.276  0.00  0.00    +0.150 HD
BRANCH  45  49
ATOM     49  CA  ALA A   2      19.295   9.053  -8.826  0.00  0.00    +0.149 C 
ATOM     50  CB  ALA A   2      19.485   7.877  -7.896  0.00  0.00    +0.031 C 
BRANCH  49  52
ATOM     51  C   LEU A   1      20.336   9.952 -10.844  0.00  0.00    +0.238 C 
ATOM     52  N   ALA A   2      20.318   9.035  -9.877  0.00  0.00    -0.297 N 
ATOM     53  H   ALA A   2      21.045   8.291  -9.867  0.00  0.00    +0.150 HD
ATOM     54  O   LEU A   1      19.483  10.815 -10.946  0.00  0.00    -0.274 OA
BRANCH  51  55
ATOM     55  CA  LEU A   1      21.472   9.852 -11.880  0.00  0.00    +0.145 C 
BRANCH  55  56
ATOM     56  N   LEU A   1      20.909   9.792 -13.232  0.00  0.00    -0.238 NA
ATOM     57  H   LEU A   1      21.166  10.519 -13.930  0.00  0.00    +0.142 HD
ENDBRANCH  55  56
BRANCH  55  58
ATOM     58  CB  LEU A   1      22.461  11.028 -11.724  0.00  0.00    +0.026 C 
BRANCH  58  59
ATOM     59  CG  LEU A   1      23.116  11.188 -10.339  0.00  0.00    +0.002 C 
ATOM     60  CD2 LEU A   1      23.993  10.002  -9.894  0.00  0.00    +0.000 C 
ATOM     61  CD1 LEU A   1      23.945  12.480 -10.249  0.00  0.00    +0.000 C 
ENDBRANCH  58  59
ENDBRANCH  55  58
ENDBRANCH  51  55
ENDBRANCH  49  52
ENDBRANCH  45  49
ENDBRANCH  44  47
BRANCH  44  62
ATOM     62  CB  MET A   3      17.188  13.181  -7.230  0.00  0.00    +0.041 C 
BRANCH  62  63
ATOM     63  CG  MET A   3      17.220  14.009  -8.504  0.00  0.00    +0.060 C 
BRANCH  63  64
ATOM     64  SD  MET A   3      15.748  15.006  -8.634  0.00  0.00    -0.139 S 
ATOM     65  CE  MET A   3      15.798  15.486 -10.356  0.00  0.00    +0.069 C 
ENDBRANCH  63  64
ENDBRANCH  62  63
ENDBRANCH  44  62
ENDBRANCH  40  44
ENDBRANCH  39  42
BRANCH  39  66
ATOM     66  CB  SER A   4      21.255  11.588  -3.629  0.00  0.00    +0.166 C 
BRANCH  66  67
ATOM     67  OG  SER A   4      21.784  11.496  -2.315  0.00  0.00    -0.380 OA
ATOM     68  H   SER A   4      22.497  10.809  -2.295  0.00  0.00    +0.211 HD
ENDBRANCH  66  67
ENDBRANCH  39  66
ENDBRANCH   1  39
TORSDOF 29
REMARK  Name = ../refined-set-2016/3iod/3iod_pocket.pdb
REMARK  251 active torsions:
REMARK  status: ('A' for Active; 'I' for Inactive)
REMARK    1  A    between atoms: _1  and  _3
REMARK    2  A    between atoms: _3  and  _4
REMARK    3  A    between atoms: _3  and  _6
REMARK    4  A    between atoms: _6  and  _7
REMARK    5  A    between atoms: _10  and  _12
REMARK    6  A    between atoms: _12  and  _13
REMARK    7  A    between atoms: _12  and  _15
REMARK    8  A    between atoms: _19  and  _20
REMARK    9  A    between atoms: _25  and  _27
REMARK   10  A    between atoms: _27  and  _28
REMARK   11  A    between atoms: _27  and  _30
REMARK   12  A    between atoms: _30  and  _31
REMARK   13  A    between atoms: _34  and  _36
REMARK   14  A    between atoms: _36  and  _37
REMARK   15  A    between atoms: _36  and  _39
REMARK   16  A    between atoms: _39  and  _40
REMARK   17  A    between atoms: _40  and  _41
REMARK   18  A    between atoms: _43  and  _45
REMARK   19  A    between atoms: _45  and  _46
REMARK   20  A    between atoms: _48  and  _50
REMARK   21  A    between atoms: _50  and  _51
REMARK   22  A    between atoms: _54  and  _56
REMARK   23  A    between atoms: _56  and  _57
REMARK   24  A    between atoms: _56  and  _59
REMARK   25  A    between atoms: _59  and  _60
REMARK   26  A    between atoms: _63  and  _65
REMARK   27  A    between atoms: _65  and  _66
REMARK   28  A    between atoms: _65  and  _68
REMARK   29  A    between atoms: _68  and  _69
REMARK   30  A    between atoms: _74  and  _76
REMARK   31  A    between atoms: _76  and  _77
REMARK   32  A    between atoms: _76  and  _79
REMARK   33  A    between atoms: _79  and  _80
REMARK   34  A    between atoms: _80  and  _81
REMARK   35  A    between atoms: _84  and  _86
REMARK   36  A    between atoms: _86  and  _87
REMARK   37  A    between atoms: _89  and  _91
REMARK   38  A    between atoms: _91  and  _92
REMARK   39  A    between atoms: _91  and  _94
REMARK   40  A    between atoms: _94  and  _95
REMARK   41  A    between atoms: _100  and  _102
REMARK   42  A    between atoms: _102  and  _103
REMARK   43  A    between atoms: _102  and  _105
REMARK   44  A    between atoms: _105  and  _106
REMARK   45  A    between atoms: _109  and  _111
REMARK   46  A    between atoms: _111  and  _112
REMARK   47  A    between atoms: _115  and  _117
REMARK   48  A    between atoms: _117  and  _118
REMARK   49  A    between atoms: _117  and  _120
REMARK   50  A    between atoms: _120  and  _121
REMARK   51  A    between atoms: _124  and  _126
REMARK   52  A    between atoms: _126  and  _127
REMARK   53  A    between atoms: _126  and  _129
REMARK   54  A    between atoms: _132  and  _134
REMARK   55  A    between atoms: _134  and  _135
REMARK   56  A    between atoms: _134  and  _137
REMARK   57  A    between atoms: _140  and  _142
REMARK   58  A    between atoms: _142  and  _143
REMARK   59  A    between atoms: _142  and  _145
REMARK   60  A    between atoms: _145  and  _146
REMARK   61  A    between atoms: _148  and  _150
REMARK   62  A    between atoms: _150  and  _151
REMARK   63  A    between atoms: _150  and  _153
REMARK   64  A    between atoms: _153  and  _154
REMARK   65  A    between atoms: _157  and  _159
REMARK   66  A    between atoms: _159  and  _160
REMARK   67  A    between atoms: _159  and  _162
REMARK   68  A    between atoms: _162  and  _163
REMARK   69  A    between atoms: _169  and  _171
REMARK   70  A    between atoms: _171  and  _172
REMARK   71  A    between atoms: _171  and  _174
REMARK   72  A    between atoms: _177  and  _179
REMARK   73  A    between atoms: _179  and  _180
REMARK   74  A    between atoms: _179  and  _182
REMARK   75  A    between atoms: _182  and  _183
REMARK   76  A    between atoms: _189  and  _190
REMARK   77  A    between atoms: _195  and  _197
REMARK   78  A    between atoms: _197  and  _198
REMARK   79  A    between atoms: _197  and  _200
REMARK   80  A    between atoms: _200  and  _201
REMARK   81  A    between atoms: _201  and  _202
REMARK   82  A    between atoms: _204  and  _206
REMARK   83  A    between atoms: _206  and  _207
REMARK   84  A    between atoms: _206  and  _209
REMARK   85  A    between atoms: _209  and  _210
REMARK   86  A    between atoms: _210  and  _211
REMARK   87  A    between atoms: _216  and  _218
REMARK   88  A    between atoms: _218  and  _219
REMARK   89  A    between atoms: _218  and  _221
REMARK   90  A    between atoms: _221  and  _222
REMARK   91  A    between atoms: _228  and  _230
REMARK   92  A    between atoms: _230  and  _231
REMARK   93  A    between atoms: _230  and  _233
REMARK   94  A    between atoms: _233  and  _234
REMARK   95  A    between atoms: _239  and  _240
REMARK   96  A    between atoms: _242  and  _244
REMARK   97  A    between atoms: _244  and  _245
REMARK   98  A    between atoms: _244  and  _247
REMARK   99  A    between atoms: _247  and  _248
REMARK  100  A    between atoms: _255  and  _256
REMARK  101  A    between atoms: _261  and  _263
REMARK  102  A    between atoms: _263  and  _264
REMARK  103  A    between atoms: _263  and  _266
REMARK  104  A    between atoms: _266  and  _267
REMARK  105  A    between atoms: _267  and  _268
REMARK  106  A    between atoms: _270  and  _272
REMARK  107  A    between atoms: _272  and  _273
REMARK  108  A    between atoms: _272  and  _275
REMARK  109  A    between atoms: _275  and  _276
REMARK  110  A    between atoms: _281  and  _282
REMARK  111  A    between atoms: _284  and  _286
REMARK  112  A    between atoms: _286  and  _287
REMARK  113  A    between atoms: _286  and  _289
REMARK  114  A    between atoms: _289  and  _290
REMARK  115  A    between atoms: _295  and  _297
REMARK  116  A    between atoms: _297  and  _298
REMARK  117  A    between atoms: _297  and  _300
REMARK  118  A    between atoms: _300  and  _301
REMARK  119  A    between atoms: _307  and  _309
REMARK  120  A    between atoms: _309  and  _310
REMARK  121  A    between atoms: _312  and  _314
REMARK  122  A    between atoms: _314  and  _315
REMARK  123  A    between atoms: _314  and  _317
REMARK  124  A    between atoms: _320  and  _322
REMARK  125  A    between atoms: _322  and  _323
REMARK  126  A    between atoms: _322  and  _325
REMARK  127  A    between atoms: _325  and  _326
REMARK  128  A    between atoms: _329  and  _331
REMARK  129  A    between atoms: _331  and  _332
REMARK  130  A    between atoms: _331  and  _334
REMARK  131  A    between atoms: _334  and  _335
REMARK  132  A    between atoms: _338  and  _340
REMARK  133  A    between atoms: _340  and  _341
REMARK  134  A    between atoms: _340  and  _343
REMARK  135  A    between atoms: _346  and  _348
REMARK  136  A    between atoms: _348  and  _349
REMARK  137  A    between atoms: _348  and  _351
REMARK  138  A    between atoms: _354  and  _356
REMARK  139  A    between atoms: _356  and  _357
REMARK  140  A    between atoms: _356  and  _359
REMARK  141  A    between atoms: _359  and  _360
REMARK  142  A    between atoms: _363  and  _365
REMARK  143  A    between atoms: _365  and  _366
REMARK  144  A    between atoms: _365  and  _368
REMARK  145  A    between atoms: _368  and  _369
REMARK  146  A    between atoms: _375  and  _377
REMARK  147  A    between atoms: _377  and  _378
REMARK  148  A    between atoms: _377  and  _380
REMARK  149  A    between atoms: _380  and  _381
REMARK  150  A    between atoms: _387  and  _389
REMARK  151  A    between atoms: _389  and  _390
REMARK  152  A    between atoms: _392  and  _394
REMARK  153  A    between atoms: _394  and  _395
REMARK  154  A    between atoms: _394  and  _397
REMARK  155  A    between atoms: _397  and  _398
REMARK  156  A    between atoms: _398  and  _399
REMARK  157  A    between atoms: _402  and  _404
REMARK  158  A    between atoms: _404  and  _405
REMARK  159  A    between atoms: _404  and  _407
REMARK  160  A    between atoms: _407  and  _408
REMARK  161  A    between atoms: _408  and  _409
REMARK  162  A    between atoms: _409  and  _410
REMARK  163  A    between atoms: _410  and  _411
REMARK  164  A    between atoms: _415  and  _417
REMARK  165  A    between atoms: _417  and  _418
REMARK  166  A    between atoms: _417  and  _420
REMARK  167  A    between atoms: _420  and  _421
REMARK  168  A    between atoms: _424  and  _426
REMARK  169  A    between atoms: _426  and  _427
REMARK  170  A    between atoms: _426  and  _429
REMARK  171  A    between atoms: _429  and  _430
REMARK  172  A    between atoms: _435  and  _436
REMARK  173  A    between atoms: _438  and  _440
REMARK  174  A    between atoms: _440  and  _441
REMARK  175  A    between atoms: _440  and  _443
REMARK  176  A    between atoms: _443  and  _444
REMARK  177  A    between atoms: _444  and  _445
REMARK  178  A    between atoms: _450  and  _452
REMARK  179  A    between atoms: _452  and  _453
REMARK  180  A    between atoms: _452  and  _455
REMARK  181  A    between atoms: _455  and  _456
REMARK  182  A    between atoms: _459  and  _461
REMARK  183  A    between atoms: _461  and  _462
REMARK  184  A    between atoms: _461  and  _464
REMARK  185  A    between atoms: _464  and  _465
REMARK  186  A    between atoms: _468  and  _470
REMARK  187  A    between atoms: _470  and  _471
REMARK  188  A    between atoms: _470  and  _473
REMARK  189  A    between atoms: _476  and  _478
REMARK  190  A    between atoms: _478  and  _479
REMARK  191  A    between atoms: _478  and  _481
REMARK  192  A    between atoms: _485  and  _486
REMARK  193  A    between atoms: _491  and  _493
REMARK  194  A    between atoms: _493  and  _494
REMARK  195  A    between atoms: _493  and  _496
REMARK  196  A    between atoms: _496  and  _497
REMARK  197  A    between atoms: _500  and  _502
REMARK  198  A    between atoms: _502  and  _503
REMARK  199  A    between atoms: _502  and  _505
REMARK  200  A    between atoms: _508  and  _510
REMARK  201  A    between atoms: _510  and  _511
REMARK  202  A    between atoms: _510  and  _513
REMARK  203  A    between atoms: _513  and  _514
REMARK  204  A    between atoms: _514  and  _515
REMARK  205  A    between atoms: _515  and  _516
REMARK  206  A    between atoms: _525  and  _527
REMARK  207  A    between atoms: _527  and  _528
REMARK  208  A    between atoms: _527  and  _530
REMARK  209  A    between atoms: _530  and  _531
REMARK  210  A    between atoms: _531  and  _532
REMARK  211  A    between atoms: _535  and  _537
REMARK  212  A    between atoms: _537  and  _538
REMARK  213  A    between atoms: _537  and  _540
REMARK  214  A    between atoms: _540  and  _541
REMARK  215  A    between atoms: _544  and  _546
REMARK  216  A    between atoms: _546  and  _547
REMARK  217  A    between atoms: _550  and  _552
REMARK  218  A    between atoms: _552  and  _553
REMARK  219  A    between atoms: _552  and  _555
REMARK  220  A    between atoms: _555  and  _556
REMARK  221  A    between atoms: _556  and  _557
REMARK  222  A    between atoms: _559  and  _561
REMARK  223  A    between atoms: _561  and  _562
REMARK  224  A    between atoms: _561  and  _564
REMARK  225  A    between atoms: _564  and  _565
REMARK  226  A    between atoms: _567  and  _569
REMARK  227  A    between atoms: _569  and  _570
REMARK  228  A    between atoms: _569  and  _572
REMARK  229  A    between atoms: _572  and  _573
REMARK  230  A    between atoms: _575  and  _577
REMARK  231  A    between atoms: _577  and  _578
REMARK  232  A    between atoms: _577  and  _580
REMARK  233  A    between atoms: _580  and  _581
REMARK  234  A    between atoms: _581  and  _582
REMARK  235  A    between atoms: _582  and  _583
REMARK  236  A    between atoms: _592  and  _594
REMARK  237  A    between atoms: _594  and  _595
REMARK  238  A    between atoms: _594  and  _597
REMARK  239  A    between atoms: _597  and  _598
REMARK  240  A    between atoms: _603  and  _605
REMARK  241  A    between atoms: _605  and  _606
REMARK  242  A    between atoms: _605  and  _608
REMARK  243  A    between atoms: _608  and  _609
REMARK  244  A    between atoms: _612  and  _614
REMARK  245  A    between atoms: _614  and  _615
REMARK  246  A    between atoms: _614  and  _617
REMARK  247  A    between atoms: _617  and  _618
REMARK  248  A    between atoms: _621  and  _623
REMARK  249  A    between atoms: _623  and  _624
REMARK  250  A    between atoms: _623  and  _626
REMARK  251  A    between atoms: _626  and  _627
REMARK                            x       y       z     vdW  Elec       q    Type
REMARK                         _______ _______ _______ _____ _____    ______ ____
ROOT
ATOM      1  CA  ASP A   2      21.155   3.292  -6.473  0.00  0.00    +0.160 C 
ENDROOT
BRANCH   1   4
ATOM      2  C   LEU A   1      22.539   4.560  -4.974  0.00  0.00    +0.238 C 
ATOM      3  O   LEU A   1      22.060   5.618  -5.360  0.00  0.00    -0.274 OA
ATOM      4  N   ASP A   2      22.233   3.390  -5.513  0.00  0.00    -0.297 N 
ATOM      5  H   ASP A   2      22.769   2.540  -5.246  0.00  0.00    +0.150 HD
BRANCH   2   6
ATOM      6  CA  LEU A   1      23.487   4.522  -3.794  0.00  0.00    +0.145 C 
BRANCH   6   7
ATOM      7  N   LEU A   1      24.239   5.780  -3.744  0.00  0.00    -0.238 NA
ATOM      8  H   LEU A   1      23.717   6.676  -3.666  0.00  0.00    +0.142 HD
ENDBRANCH   6   7
BRANCH   6   9
ATOM      9  CB  LEU A   1      22.602   4.340  -2.552  0.00  0.00    +0.026 C 
BRANCH   9  10
ATOM     10  CG  LEU A   1      23.189   4.340  -1.154  0.00  0.00    +0.002 C 
ATOM     11  CD2 LEU A   1      22.088   3.967  -0.159  0.00  0.00    +0.000 C 
ATOM     12  CD1 LEU A   1      24.310   3.364  -1.098  0.00  0.00    +0.000 C 
ENDBRANCH   9  10
ENDBRANCH   6   9
ENDBRANCH   2   6
ENDBRANCH   1   4
BRANCH   1  13
ATOM     13  C   ASP A   2      20.728   1.825  -6.489  0.00  0.00    +0.241 C 
ATOM     14  O   ASP A   2      21.443   0.964  -6.012  0.00  0.00    -0.273 OA
ATOM     15  N   ASN A   3      19.551   1.557  -7.030  0.00  0.00    -0.298 N 
ATOM     16  H   ASN A   3      18.957   2.336  -7.379  0.00  0.00    +0.150 HD
BRANCH  15  17
ATOM     17  CA  ASN A   3      19.078   0.188  -7.142  0.00  0.00    +0.146 C 
BRANCH  17  18
ATOM     18  C   ASN A   3      17.999   0.137  -8.206  0.00  0.00    +0.227 C 
ATOM     19  O   ASN A   3      17.435   1.166  -8.571  0.00  0.00    -0.286 OA
ENDBRANCH  17  18
BRANCH  17  20
ATOM     20  CB  ASN A   3      18.535  -0.284  -5.783  0.00  0.00    +0.112 C 
BRANCH  20  21
ATOM     21  CG  ASN A   3      17.275   0.473  -5.379  0.00  0.00    +0.222 C 
ATOM     22  ND2 ASN A   3      17.433   1.540  -4.582  0.00  0.00    -0.329 N 
ATOM     23 HD21 ASN A   3      18.381   1.801  -4.244  0.00  0.00    +0.145 HD
ATOM     24 HD22 ASN A   3      16.607   2.106  -4.302  0.00  0.00    +0.145 HD
ATOM     25  OD1 ASN A   3      16.187   0.120  -5.805  0.00  0.00    -0.275 OA
ENDBRANCH  20  21
ENDBRANCH  17  20
ENDBRANCH  15  17
ENDBRANCH   1  13
BRANCH   1  26
ATOM     26  CB  ASP A   2      21.631   3.742  -7.864  0.00  0.00    +0.143 C 
BRANCH  26  27
ATOM     27  CG  ASP A   2      20.474   4.115  -8.804  0.00  0.00    +0.367 C 
ATOM     28  OD2 ASP A   2      19.282   3.833  -8.490  0.00  0.00    -0.246 OA
ATOM     29  OD1 ASP A   2      20.783   4.681  -9.883  0.00  0.00    -0.246 OA
ENDBRANCH  26  27
ENDBRANCH   1  26
TORSDOF 12
REMARK  Name = ../refined-set-2016/3iod/3iod_pocket.pdb
REMARK  251 active torsions:
REMARK  status: ('A' for Active; 'I' for Inactive)
REMARK    1  A    between atoms: _1  and  _3
REMARK    2  A    between atoms: _3  and  _4
REMARK    3  A    between atoms: _3  and  _6
REMARK    4  A    between atoms: _6  and  _7
REMARK    5  A    between atoms: _10  and  _12
REMARK    6  A    between atoms: _12  and  _13
REMARK    7  A    between atoms: _12  and  _15
REMARK    8  A    between atoms: _19  and  _20
REMARK    9  A    between atoms: _25  and  _27
REMARK   10  A    between atoms: _27  and  _28
REMARK   11  A    between atoms: _27  and  _30
REMARK   12  A    between atoms: _30  and  _31
REMARK   13  A    between atoms: _34  and  _36
REMARK   14  A    between atoms: _36  and  _37
REMARK   15  A    between atoms: _36  and  _39
REMARK   16  A    between atoms: _39  and  _40
REMARK   17  A    between atoms: _40  and  _41
REMARK   18  A    between atoms: _43  and  _45
REMARK   19  A    between atoms: _45  and  _46
REMARK   20  A    between atoms: _48  and  _50
REMARK   21  A    between atoms: _50  and  _51
REMARK   22  A    between atoms: _54  and  _56
REMARK   23  A    between atoms: _56  and  _57
REMARK   24  A    between atoms: _56  and  _59
REMARK   25  A    between atoms: _59  and  _60
REMARK   26  A    between atoms: _63  and  _65
REMARK   27  A    between atoms: _65  and  _66
REMARK   28  A    between atoms: _65  and  _68
REMARK   29  A    between atoms: _68  and  _69
REMARK   30  A    between atoms: _74  and  _76
REMARK   31  A    between atoms: _76  and  _77
REMARK   32  A    between atoms: _76  and  _79
REMARK   33  A    between atoms: _79  and  _80
REMARK   34  A    between atoms: _80  and  _81
REMARK   35  A    between atoms: _84  and  _86
REMARK   36  A    between atoms: _86  and  _87
REMARK   37  A    between atoms: _89  and  _91
REMARK   38  A    between atoms: _91  and  _92
REMARK   39  A    between atoms: _91  and  _94
REMARK   40  A    between atoms: _94  and  _95
REMARK   41  A    between atoms: _100  and  _102
REMARK   42  A    between atoms: _102  and  _103
REMARK   43  A    between atoms: _102  and  _105
REMARK   44  A    between atoms: _105  and  _106
REMARK   45  A    between atoms: _109  and  _111
REMARK   46  A    between atoms: _111  and  _112
REMARK   47  A    between atoms: _115  and  _117
REMARK   48  A    between atoms: _117  and  _118
REMARK   49  A    between atoms: _117  and  _120
REMARK   50  A    between atoms: _120  and  _121
REMARK   51  A    between atoms: _124  and  _126
REMARK   52  A    between atoms: _126  and  _127
REMARK   53  A    between atoms: _126  and  _129
REMARK   54  A    between atoms: _132  and  _134
REMARK   55  A    between atoms: _134  and  _135
REMARK   56  A    between atoms: _134  and  _137
REMARK   57  A    between atoms: _140  and  _142
REMARK   58  A    between atoms: _142  and  _143
REMARK   59  A    between atoms: _142  and  _145
REMARK   60  A    between atoms: _145  and  _146
REMARK   61  A    between atoms: _148  and  _150
REMARK   62  A    between atoms: _150  and  _151
REMARK   63  A    between atoms: _150  and  _153
REMARK   64  A    between atoms: _153  and  _154
REMARK   65  A    between atoms: _157  and  _159
REMARK   66  A    between atoms: _159  and  _160
REMARK   67  A    between atoms: _159  and  _162
REMARK   68  A    between atoms: _162  and  _163
REMARK   69  A    between atoms: _169  and  _171
REMARK   70  A    between atoms: _171  and  _172
REMARK   71  A    between atoms: _171  and  _174
REMARK   72  A    between atoms: _177  and  _179
REMARK   73  A    between atoms: _179  and  _180
REMARK   74  A    between atoms: _179  and  _182
REMARK   75  A    between atoms: _182  and  _183
REMARK   76  A    between atoms: _189  and  _190
REMARK   77  A    between atoms: _195  and  _197
REMARK   78  A    between atoms: _197  and  _198
REMARK   79  A    between atoms: _197  and  _200
REMARK   80  A    between atoms: _200  and  _201
REMARK   81  A    between atoms: _201  and  _202
REMARK   82  A    between atoms: _204  and  _206
REMARK   83  A    between atoms: _206  and  _207
REMARK   84  A    between atoms: _206  and  _209
REMARK   85  A    between atoms: _209  and  _210
REMARK   86  A    between atoms: _210  and  _211
REMARK   87  A    between atoms: _216  and  _218
REMARK   88  A    between atoms: _218  and  _219
REMARK   89  A    between atoms: _218  and  _221
REMARK   90  A    between atoms: _221  and  _222
REMARK   91  A    between atoms: _228  and  _230
REMARK   92  A    between atoms: _230  and  _231
REMARK   93  A    between atoms: _230  and  _233
REMARK   94  A    between atoms: _233  and  _234
REMARK   95  A    between atoms: _239  and  _240
REMARK   96  A    between atoms: _242  and  _244
REMARK   97  A    between atoms: _244  and  _245
REMARK   98  A    between atoms: _244  and  _247
REMARK   99  A    between atoms: _247  and  _248
REMARK  100  A    between atoms: _255  and  _256
REMARK  101  A    between atoms: _261  and  _263
REMARK  102  A    between atoms: _263  and  _264
REMARK  103  A    between atoms: _263  and  _266
REMARK  104  A    between atoms: _266  and  _267
REMARK  105  A    between atoms: _267  and  _268
REMARK  106  A    between atoms: _270  and  _272
REMARK  107  A    between atoms: _272  and  _273
REMARK  108  A    between atoms: _272  and  _275
REMARK  109  A    between atoms: _275  and  _276
REMARK  110  A    between atoms: _281  and  _282
REMARK  111  A    between atoms: _284  and  _286
REMARK  112  A    between atoms: _286  and  _287
REMARK  113  A    between atoms: _286  and  _289
REMARK  114  A    between atoms: _289  and  _290
REMARK  115  A    between atoms: _295  and  _297
REMARK  116  A    between atoms: _297  and  _298
REMARK  117  A    between atoms: _297  and  _300
REMARK  118  A    between atoms: _300  and  _301
REMARK  119  A    between atoms: _307  and  _309
REMARK  120  A    between atoms: _309  and  _310
REMARK  121  A    between atoms: _312  and  _314
REMARK  122  A    between atoms: _314  and  _315
REMARK  123  A    between atoms: _314  and  _317
REMARK  124  A    between atoms: _320  and  _322
REMARK  125  A    between atoms: _322  and  _323
REMARK  126  A    between atoms: _322  and  _325
REMARK  127  A    between atoms: _325  and  _326
REMARK  128  A    between atoms: _329  and  _331
REMARK  129  A    between atoms: _331  and  _332
REMARK  130  A    between atoms: _331  and  _334
REMARK  131  A    between atoms: _334  and  _335
REMARK  132  A    between atoms: _338  and  _340
REMARK  133  A    between atoms: _340  and  _341
REMARK  134  A    between atoms: _340  and  _343
REMARK  135  A    between atoms: _346  and  _348
REMARK  136  A    between atoms: _348  and  _349
REMARK  137  A    between atoms: _348  and  _351
REMARK  138  A    between atoms: _354  and  _356
REMARK  139  A    between atoms: _356  and  _357
REMARK  140  A    between atoms: _356  and  _359
REMARK  141  A    between atoms: _359  and  _360
REMARK  142  A    between atoms: _363  and  _365
REMARK  143  A    between atoms: _365  and  _366
REMARK  144  A    between atoms: _365  and  _368
REMARK  145  A    between atoms: _368  and  _369
REMARK  146  A    between atoms: _375  and  _377
REMARK  147  A    between atoms: _377  and  _378
REMARK  148  A    between atoms: _377  and  _380
REMARK  149  A    between atoms: _380  and  _381
REMARK  150  A    between atoms: _387  and  _389
REMARK  151  A    between atoms: _389  and  _390
REMARK  152  A    between atoms: _392  and  _394
REMARK  153  A    between atoms: _394  and  _395
REMARK  154  A    between atoms: _394  and  _397
REMARK  155  A    between atoms: _397  and  _398
REMARK  156  A    between atoms: _398  and  _399
REMARK  157  A    between atoms: _402  and  _404
REMARK  158  A    between atoms: _404  and  _405
REMARK  159  A    between atoms: _404  and  _407
REMARK  160  A    between atoms: _407  and  _408
REMARK  161  A    between atoms: _408  and  _409
REMARK  162  A    between atoms: _409  and  _410
REMARK  163  A    between atoms: _410  and  _411
REMARK  164  A    between atoms: _415  and  _417
REMARK  165  A    between atoms: _417  and  _418
REMARK  166  A    between atoms: _417  and  _420
REMARK  167  A    between atoms: _420  and  _421
REMARK  168  A    between atoms: _424  and  _426
REMARK  169  A    between atoms: _426  and  _427
REMARK  170  A    between atoms: _426  and  _429
REMARK  171  A    between atoms: _429  and  _430
REMARK  172  A    between atoms: _435  and  _436
REMARK  173  A    between atoms: _438  and  _440
REMARK  174  A    between atoms: _440  and  _441
REMARK  175  A    between atoms: _440  and  _443
REMARK  176  A    between atoms: _443  and  _444
REMARK  177  A    between atoms: _444  and  _445
REMARK  178  A    between atoms: _450  and  _452
REMARK  179  A    between atoms: _452  and  _453
REMARK  180  A    between atoms: _452  and  _455
REMARK  181  A    between atoms: _455  and  _456
REMARK  182  A    between atoms: _459  and  _461
REMARK  183  A    between atoms: _461  and  _462
REMARK  184  A    between atoms: _461  and  _464
REMARK  185  A    between atoms: _464  and  _465
REMARK  186  A    between atoms: _468  and  _470
REMARK  187  A    between atoms: _470  and  _471
REMARK  188  A    between atoms: _470  and  _473
REMARK  189  A    between atoms: _476  and  _478
REMARK  190  A    between atoms: _478  and  _479
REMARK  191  A    between atoms: _478  and  _481
REMARK  192  A    between atoms: _485  and  _486
REMARK  193  A    between atoms: _491  and  _493
REMARK  194  A    between atoms: _493  and  _494
REMARK  195  A    between atoms: _493  and  _496
REMARK  196  A    between atoms: _496  and  _497
REMARK  197  A    between atoms: _500  and  _502
REMARK  198  A    between atoms: _502  and  _503
REMARK  199  A    between atoms: _502  and  _505
REMARK  200  A    between atoms: _508  and  _510
REMARK  201  A    between atoms: _510  and  _511
REMARK  202  A    between atoms: _510  and  _513
REMARK  203  A    between atoms: _513  and  _514
REMARK  204  A    between atoms: _514  and  _515
REMARK  205  A    between atoms: _515  and  _516
REMARK  206  A    between atoms: _525  and  _527
REMARK  207  A    between atoms: _527  and  _528
REMARK  208  A    between atoms: _527  and  _530
REMARK  209  A    between atoms: _530  and  _531
REMARK  210  A    between atoms: _531  and  _532
REMARK  211  A    between atoms: _535  and  _537
REMARK  212  A    between atoms: _537  and  _538
REMARK  213  A    between atoms: _537  and  _540
REMARK  214  A    between atoms: _540  and  _541
REMARK  215  A    between atoms: _544  and  _546
REMARK  216  A    between atoms: _546  and  _547
REMARK  217  A    between atoms: _550  and  _552
REMARK  218  A    between atoms: _552  and  _553
REMARK  219  A    between atoms: _552  and  _555
REMARK  220  A    between atoms: _555  and  _556
REMARK  221  A    between atoms: _556  and  _557
REMARK  222  A    between atoms: _559  and  _561
REMARK  223  A    between atoms: _561  and  _562
REMARK  224  A    between atoms: _561  and  _564
REMARK  225  A    between atoms: _564  and  _565
REMARK  226  A    between atoms: _567  and  _569
REMARK  227  A    between atoms: _569  and  _570
REMARK  228  A    between atoms: _569  and  _572
REMARK  229  A    between atoms: _572  and  _573
REMARK  230  A    between atoms: _575  and  _577
REMARK  231  A    between atoms: _577  and  _578
REMARK  232  A    between atoms: _577  and  _580
REMARK  233  A    between atoms: _580  and  _581
REMARK  234  A    between atoms: _581  and  _582
REMARK  235  A    between atoms: _582  and  _583
REMARK  236  A    between atoms: _592  and  _594
REMARK  237  A    between atoms: _594  and  _595
REMARK  238  A    between atoms: _594  and  _597
REMARK  239  A    between atoms: _597  and  _598
REMARK  240  A    between atoms: _603  and  _605
REMARK  241  A    between atoms: _605  and  _606
REMARK  242  A    between atoms: _605  and  _608
REMARK  243  A    between atoms: _608  and  _609
REMARK  244  A    between atoms: _612  and  _614
REMARK  245  A    between atoms: _614  and  _615
REMARK  246  A    between atoms: _614  and  _617
REMARK  247  A    between atoms: _617  and  _618
REMARK  248  A    between atoms: _621  and  _623
REMARK  249  A    between atoms: _623  and  _624
REMARK  250  A    between atoms: _623  and  _626
REMARK  251  A    between atoms: _626  and  _627
REMARK                            x       y       z     vdW  Elec       q    Type
REMARK                         _______ _______ _______ _____ _____    ______ ____
ROOT
ATOM      1  O   HOH     1      11.718  13.182   9.759  0.00  0.00    +0.000 OA
ENDROOT
TORSDOF 0
REMARK  Name = ../refined-set-2016/3iod/3iod_pocket.pdb
REMARK  251 active torsions:
REMARK  status: ('A' for Active; 'I' for Inactive)
REMARK    1  A    between atoms: _1  and  _3
REMARK    2  A    between atoms: _3  and  _4
REMARK    3  A    between atoms: _3  and  _6
REMARK    4  A    between atoms: _6  and  _7
REMARK    5  A    between atoms: _10  and  _12
REMARK    6  A    between atoms: _12  and  _13
REMARK    7  A    between atoms: _12  and  _15
REMARK    8  A    between atoms: _19  and  _20
REMARK    9  A    between atoms: _25  and  _27
REMARK   10  A    between atoms: _27  and  _28
REMARK   11  A    between atoms: _27  and  _30
REMARK   12  A    between atoms: _30  and  _31
REMARK   13  A    between atoms: _34  and  _36
REMARK   14  A    between atoms: _36  and  _37
REMARK   15  A    between atoms: _36  and  _39
REMARK   16  A    between atoms: _39  and  _40
REMARK   17  A    between atoms: _40  and  _41
REMARK   18  A    between atoms: _43  and  _45
REMARK   19  A    between atoms: _45  and  _46
REMARK   20  A    between atoms: _48  and  _50
REMARK   21  A    between atoms: _50  and  _51
REMARK   22  A    between atoms: _54  and  _56
REMARK   23  A    between atoms: _56  and  _57
REMARK   24  A    between atoms: _56  and  _59
REMARK   25  A    between atoms: _59  and  _60
REMARK   26  A    between atoms: _63  and  _65
REMARK   27  A    between atoms: _65  and  _66
REMARK   28  A    between atoms: _65  and  _68
REMARK   29  A    between atoms: _68  and  _69
REMARK   30  A    between atoms: _74  and  _76
REMARK   31  A    between atoms: _76  and  _77
REMARK   32  A    between atoms: _76  and  _79
REMARK   33  A    between atoms: _79  and  _80
REMARK   34  A    between atoms: _80  and  _81
REMARK   35  A    between atoms: _84  and  _86
REMARK   36  A    between atoms: _86  and  _87
REMARK   37  A    between atoms: _89  and  _91
REMARK   38  A    between atoms: _91  and  _92
REMARK   39  A    between atoms: _91  and  _94
REMARK   40  A    between atoms: _94  and  _95
REMARK   41  A    between atoms: _100  and  _102
REMARK   42  A    between atoms: _102  and  _103
REMARK   43  A    between atoms: _102  and  _105
REMARK   44  A    between atoms: _105  and  _106
REMARK   45  A    between atoms: _109  and  _111
REMARK   46  A    between atoms: _111  and  _112
REMARK   47  A    between atoms: _115  and  _117
REMARK   48  A    between atoms: _117  and  _118
REMARK   49  A    between atoms: _117  and  _120
REMARK   50  A    between atoms: _120  and  _121
REMARK   51  A    between atoms: _124  and  _126
REMARK   52  A    between atoms: _126  and  _127
REMARK   53  A    between atoms: _126  and  _129
REMARK   54  A    between atoms: _132  and  _134
REMARK   55  A    between atoms: _134  and  _135
REMARK   56  A    between atoms: _134  and  _137
REMARK   57  A    between atoms: _140  and  _142
REMARK   58  A    between atoms: _142  and  _143
REMARK   59  A    between atoms: _142  and  _145
REMARK   60  A    between atoms: _145  and  _146
REMARK   61  A    between atoms: _148  and  _150
REMARK   62  A    between atoms: _150  and  _151
REMARK   63  A    between atoms: _150  and  _153
REMARK   64  A    between atoms: _153  and  _154
REMARK   65  A    between atoms: _157  and  _159
REMARK   66  A    between atoms: _159  and  _160
REMARK   67  A    between atoms: _159  and  _162
REMARK   68  A    between atoms: _162  and  _163
REMARK   69  A    between atoms: _169  and  _171
REMARK   70  A    between atoms: _171  and  _172
REMARK   71  A    between atoms: _171  and  _174
REMARK   72  A    between atoms: _177  and  _179
REMARK   73  A    between atoms: _179  and  _180
REMARK   74  A    between atoms: _179  and  _182
REMARK   75  A    between atoms: _182  and  _183
REMARK   76  A    between atoms: _189  and  _190
REMARK   77  A    between atoms: _195  and  _197
REMARK   78  A    between atoms: _197  and  _198
REMARK   79  A    between atoms: _197  and  _200
REMARK   80  A    between atoms: _200  and  _201
REMARK   81  A    between atoms: _201  and  _202
REMARK   82  A    between atoms: _204  and  _206
REMARK   83  A    between atoms: _206  and  _207
REMARK   84  A    between atoms: _206  and  _209
REMARK   85  A    between atoms: _209  and  _210
REMARK   86  A    between atoms: _210  and  _211
REMARK   87  A    between atoms: _216  and  _218
REMARK   88  A    between atoms: _218  and  _219
REMARK   89  A    between atoms: _218  and  _221
REMARK   90  A    between atoms: _221  and  _222
REMARK   91  A    between atoms: _228  and  _230
REMARK   92  A    between atoms: _230  and  _231
REMARK   93  A    between atoms: _230  and  _233
REMARK   94  A    between atoms: _233  and  _234
REMARK   95  A    between atoms: _239  and  _240
REMARK   96  A    between atoms: _242  and  _244
REMARK   97  A    between atoms: _244  and  _245
REMARK   98  A    between atoms: _244  and  _247
REMARK   99  A    between atoms: _247  and  _248
REMARK  100  A    between atoms: _255  and  _256
REMARK  101  A    between atoms: _261  and  _263
REMARK  102  A    between atoms: _263  and  _264
REMARK  103  A    between atoms: _263  and  _266
REMARK  104  A    between atoms: _266  and  _267
REMARK  105  A    between atoms: _267  and  _268
REMARK  106  A    between atoms: _270  and  _272
REMARK  107  A    between atoms: _272  and  _273
REMARK  108  A    between atoms: _272  and  _275
REMARK  109  A    between atoms: _275  and  _276
REMARK  110  A    between atoms: _281  and  _282
REMARK  111  A    between atoms: _284  and  _286
REMARK  112  A    between atoms: _286  and  _287
REMARK  113  A    between atoms: _286  and  _289
REMARK  114  A    between atoms: _289  and  _290
REMARK  115  A    between atoms: _295  and  _297
REMARK  116  A    between atoms: _297  and  _298
REMARK  117  A    between atoms: _297  and  _300
REMARK  118  A    between atoms: _300  and  _301
REMARK  119  A    between atoms: _307  and  _309
REMARK  120  A    between atoms: _309  and  _310
REMARK  121  A    between atoms: _312  and  _314
REMARK  122  A    between atoms: _314  and  _315
REMARK  123  A    between atoms: _314  and  _317
REMARK  124  A    between atoms: _320  and  _322
REMARK  125  A    between atoms: _322  and  _323
REMARK  126  A    between atoms: _322  and  _325
REMARK  127  A    between atoms: _325  and  _326
REMARK  128  A    between atoms: _329  and  _331
REMARK  129  A    between atoms: _331  and  _332
REMARK  130  A    between atoms: _331  and  _334
REMARK  131  A    between atoms: _334  and  _335
REMARK  132  A    between atoms: _338  and  _340
REMARK  133  A    between atoms: _340  and  _341
REMARK  134  A    between atoms: _340  and  _343
REMARK  135  A    between atoms: _346  and  _348
REMARK  136  A    between atoms: _348  and  _349
REMARK  137  A    between atoms: _348  and  _351
REMARK  138  A    between atoms: _354  and  _356
REMARK  139  A    between atoms: _356  and  _357
REMARK  140  A    between atoms: _356  and  _359
REMARK  141  A    between atoms: _359  and  _360
REMARK  142  A    between atoms: _363  and  _365
REMARK  143  A    between atoms: _365  and  _366
REMARK  144  A    between atoms: _365  and  _368
REMARK  145  A    between atoms: _368  and  _369
REMARK  146  A    between atoms: _375  and  _377
REMARK  147  A    between atoms: _377  and  _378
REMARK  148  A    between atoms: _377  and  _380
REMARK  149  A    between atoms: _380  and  _381
REMARK  150  A    between atoms: _387  and  _389
REMARK  151  A    between atoms: _389  and  _390
REMARK  152  A    between atoms: _392  and  _394
REMARK  153  A    between atoms: _394  and  _395
REMARK  154  A    between atoms: _394  and  _397
REMARK  155  A    between atoms: _397  and  _398
REMARK  156  A    between atoms: _398  and  _399
REMARK  157  A    between atoms: _402  and  _404
REMARK  158  A    between atoms: _404  and  _405
REMARK  159  A    between atoms: _404  and  _407
REMARK  160  A    between atoms: _407  and  _408
REMARK  161  A    between atoms: _408  and  _409
REMARK  162  A    between atoms: _409  and  _410
REMARK  163  A    between atoms: _410  and  _411
REMARK  164  A    between atoms: _415  and  _417
REMARK  165  A    between atoms: _417  and  _418
REMARK  166  A    between atoms: _417  and  _420
REMARK  167  A    between atoms: _420  and  _421
REMARK  168  A    between atoms: _424  and  _426
REMARK  169  A    between atoms: _426  and  _427
REMARK  170  A    between atoms: _426  and  _429
REMARK  171  A    between atoms: _429  and  _430
REMARK  172  A    between atoms: _435  and  _436
REMARK  173  A    between atoms: _438  and  _440
REMARK  174  A    between atoms: _440  and  _441
REMARK  175  A    between atoms: _440  and  _443
REMARK  176  A    between atoms: _443  and  _444
REMARK  177  A    between atoms: _444  and  _445
REMARK  178  A    between atoms: _450  and  _452
REMARK  179  A    between atoms: _452  and  _453
REMARK  180  A    between atoms: _452  and  _455
REMARK  181  A    between atoms: _455  and  _456
REMARK  182  A    between atoms: _459  and  _461
REMARK  183  A    between atoms: _461  and  _462
REMARK  184  A    between atoms: _461  and  _464
REMARK  185  A    between atoms: _464  and  _465
REMARK  186  A    between atoms: _468  and  _470
REMARK  187  A    between atoms: _470  and  _471
REMARK  188  A    between atoms: _470  and  _473
REMARK  189  A    between atoms: _476  and  _478
REMARK  190  A    between atoms: _478  and  _479
REMARK  191  A    between atoms: _478  and  _481
REMARK  192  A    between atoms: _485  and  _486
REMARK  193  A    between atoms: _491  and  _493
REMARK  194  A    between atoms: _493  and  _494
REMARK  195  A    between atoms: _493  and  _496
REMARK  196  A    between atoms: _496  and  _497
REMARK  197  A    between atoms: _500  and  _502
REMARK  198  A    between atoms: _502  and  _503
REMARK  199  A    between atoms: _502  and  _505
REMARK  200  A    between atoms: _508  and  _510
REMARK  201  A    between atoms: _510  and  _511
REMARK  202  A    between atoms: _510  and  _513
REMARK  203  A    between atoms: _513  and  _514
REMARK  204  A    between atoms: _514  and  _515
REMARK  205  A    between atoms: _515  and  _516
REMARK  206  A    between atoms: _525  and  _527
REMARK  207  A    between atoms: _527  and  _528
REMARK  208  A    between atoms: _527  and  _530
REMARK  209  A    between atoms: _530  and  _531
REMARK  210  A    between atoms: _531  and  _532
REMARK  211  A    between atoms: _535  and  _537
REMARK  212  A    between atoms: _537  and  _538
REMARK  213  A    between atoms: _537  and  _540
REMARK  214  A    between atoms: _540  and  _541
REMARK  215  A    between atoms: _544  and  _546
REMARK  216  A    between atoms: _546  and  _547
REMARK  217  A    between atoms: _550  and  _552
REMARK  218  A    between atoms: _552  and  _553
REMARK  219  A    between atoms: _552  and  _555
REMARK  220  A    between atoms: _555  and  _556
REMARK  221  A    between atoms: _556  and  _557
REMARK  222  A    between atoms: _559  and  _561
REMARK  223  A    between atoms: _561  and  _562
REMARK  224  A    between atoms: _561  and  _564
REMARK  225  A    between atoms: _564  and  _565
REMARK  226  A    between atoms: _567  and  _569
REMARK  227  A    between atoms: _569  and  _570
REMARK  228  A    between atoms: _569  and  _572
REMARK  229  A    between atoms: _572  and  _573
REMARK  230  A    between atoms: _575  and  _577
REMARK  231  A    between atoms: _577  and  _578
REMARK  232  A    between atoms: _577  and  _580
REMARK  233  A    between atoms: _580  and  _581
REMARK  234  A    between atoms: _581  and  _582
REMARK  235  A    between atoms: _582  and  _583
REMARK  236  A    between atoms: _592  and  _594
REMARK  237  A    between atoms: _594  and  _595
REMARK  238  A    between atoms: _594  and  _597
REMARK  239  A    between atoms: _597  and  _598
REMARK  240  A    between atoms: _603  and  _605
REMARK  241  A    between atoms: _605  and  _606
REMARK  242  A    between atoms: _605  and  _608
REMARK  243  A    between atoms: _608  and  _609
REMARK  244  A    between atoms: _612  and  _614
REMARK  245  A    between atoms: _614  and  _615
REMARK  246  A    between atoms: _614  and  _617
REMARK  247  A    between atoms: _617  and  _618
REMARK  248  A    between atoms: _621  and  _623
REMARK  249  A    between atoms: _623  and  _624
REMARK  250  A    between atoms: _623  and  _626
REMARK  251  A    between atoms: _626  and  _627
REMARK                            x       y       z     vdW  Elec       q    Type
REMARK                         _______ _______ _______ _____ _____    ______ ____
ROOT
ATOM      1  O   HOH     1      21.404   7.692   0.502  0.00  0.00    +0.000 OA
ENDROOT
TORSDOF 0
REMARK  Name = ../refined-set-2016/3iod/3iod_pocket.pdb
REMARK  251 active torsions:
REMARK  status: ('A' for Active; 'I' for Inactive)
REMARK    1  A    between atoms: _1  and  _3
REMARK    2  A    between atoms: _3  and  _4
REMARK    3  A    between atoms: _3  and  _6
REMARK    4  A    between atoms: _6  and  _7
REMARK    5  A    between atoms: _10  and  _12
REMARK    6  A    between atoms: _12  and  _13
REMARK    7  A    between atoms: _12  and  _15
REMARK    8  A    between atoms: _19  and  _20
REMARK    9  A    between atoms: _25  and  _27
REMARK   10  A    between atoms: _27  and  _28
REMARK   11  A    between atoms: _27  and  _30
REMARK   12  A    between atoms: _30  and  _31
REMARK   13  A    between atoms: _34  and  _36
REMARK   14  A    between atoms: _36  and  _37
REMARK   15  A    between atoms: _36  and  _39
REMARK   16  A    between atoms: _39  and  _40
REMARK   17  A    between atoms: _40  and  _41
REMARK   18  A    between atoms: _43  and  _45
REMARK   19  A    between atoms: _45  and  _46
REMARK   20  A    between atoms: _48  and  _50
REMARK   21  A    between atoms: _50  and  _51
REMARK   22  A    between atoms: _54  and  _56
REMARK   23  A    between atoms: _56  and  _57
REMARK   24  A    between atoms: _56  and  _59
REMARK   25  A    between atoms: _59  and  _60
REMARK   26  A    between atoms: _63  and  _65
REMARK   27  A    between atoms: _65  and  _66
REMARK   28  A    between atoms: _65  and  _68
REMARK   29  A    between atoms: _68  and  _69
REMARK   30  A    between atoms: _74  and  _76
REMARK   31  A    between atoms: _76  and  _77
REMARK   32  A    between atoms: _76  and  _79
REMARK   33  A    between atoms: _79  and  _80
REMARK   34  A    between atoms: _80  and  _81
REMARK   35  A    between atoms: _84  and  _86
REMARK   36  A    between atoms: _86  and  _87
REMARK   37  A    between atoms: _89  and  _91
REMARK   38  A    between atoms: _91  and  _92
REMARK   39  A    between atoms: _91  and  _94
REMARK   40  A    between atoms: _94  and  _95
REMARK   41  A    between atoms: _100  and  _102
REMARK   42  A    between atoms: _102  and  _103
REMARK   43  A    between atoms: _102  and  _105
REMARK   44  A    between atoms: _105  and  _106
REMARK   45  A    between atoms: _109  and  _111
REMARK   46  A    between atoms: _111  and  _112
REMARK   47  A    between atoms: _115  and  _117
REMARK   48  A    between atoms: _117  and  _118
REMARK   49  A    between atoms: _117  and  _120
REMARK   50  A    between atoms: _120  and  _121
REMARK   51  A    between atoms: _124  and  _126
REMARK   52  A    between atoms: _126  and  _127
REMARK   53  A    between atoms: _126  and  _129
REMARK   54  A    between atoms: _132  and  _134
REMARK   55  A    between atoms: _134  and  _135
REMARK   56  A    between atoms: _134  and  _137
REMARK   57  A    between atoms: _140  and  _142
REMARK   58  A    between atoms: _142  and  _143
REMARK   59  A    between atoms: _142  and  _145
REMARK   60  A    between atoms: _145  and  _146
REMARK   61  A    between atoms: _148  and  _150
REMARK   62  A    between atoms: _150  and  _151
REMARK   63  A    between atoms: _150  and  _153
REMARK   64  A    between atoms: _153  and  _154
REMARK   65  A    between atoms: _157  and  _159
REMARK   66  A    between atoms: _159  and  _160
REMARK   67  A    between atoms: _159  and  _162
REMARK   68  A    between atoms: _162  and  _163
REMARK   69  A    between atoms: _169  and  _171
REMARK   70  A    between atoms: _171  and  _172
REMARK   71  A    between atoms: _171  and  _174
REMARK   72  A    between atoms: _177  and  _179
REMARK   73  A    between atoms: _179  and  _180
REMARK   74  A    between atoms: _179  and  _182
REMARK   75  A    between atoms: _182  and  _183
REMARK   76  A    between atoms: _189  and  _190
REMARK   77  A    between atoms: _195  and  _197
REMARK   78  A    between atoms: _197  and  _198
REMARK   79  A    between atoms: _197  and  _200
REMARK   80  A    between atoms: _200  and  _201
REMARK   81  A    between atoms: _201  and  _202
REMARK   82  A    between atoms: _204  and  _206
REMARK   83  A    between atoms: _206  and  _207
REMARK   84  A    between atoms: _206  and  _209
REMARK   85  A    between atoms: _209  and  _210
REMARK   86  A    between atoms: _210  and  _211
REMARK   87  A    between atoms: _216  and  _218
REMARK   88  A    between atoms: _218  and  _219
REMARK   89  A    between atoms: _218  and  _221
REMARK   90  A    between atoms: _221  and  _222
REMARK   91  A    between atoms: _228  and  _230
REMARK   92  A    between atoms: _230  and  _231
REMARK   93  A    between atoms: _230  and  _233
REMARK   94  A    between atoms: _233  and  _234
REMARK   95  A    between atoms: _239  and  _240
REMARK   96  A    between atoms: _242  and  _244
REMARK   97  A    between atoms: _244  and  _245
REMARK   98  A    between atoms: _244  and  _247
REMARK   99  A    between atoms: _247  and  _248
REMARK  100  A    between atoms: _255  and  _256
REMARK  101  A    between atoms: _261  and  _263
REMARK  102  A    between atoms: _263  and  _264
REMARK  103  A    between atoms: _263  and  _266
REMARK  104  A    between atoms: _266  and  _267
REMARK  105  A    between atoms: _267  and  _268
REMARK  106  A    between atoms: _270  and  _272
REMARK  107  A    between atoms: _272  and  _273
REMARK  108  A    between atoms: _272  and  _275
REMARK  109  A    between atoms: _275  and  _276
REMARK  110  A    between atoms: _281  and  _282
REMARK  111  A    between atoms: _284  and  _286
REMARK  112  A    between atoms: _286  and  _287
REMARK  113  A    between atoms: _286  and  _289
REMARK  114  A    between atoms: _289  and  _290
REMARK  115  A    between atoms: _295  and  _297
REMARK  116  A    between atoms: _297  and  _298
REMARK  117  A    between atoms: _297  and  _300
REMARK  118  A    between atoms: _300  and  _301
REMARK  119  A    between atoms: _307  and  _309
REMARK  120  A    between atoms: _309  and  _310
REMARK  121  A    between atoms: _312  and  _314
REMARK  122  A    between atoms: _314  and  _315
REMARK  123  A    between atoms: _314  and  _317
REMARK  124  A    between atoms: _320  and  _322
REMARK  125  A    between atoms: _322  and  _323
REMARK  126  A    between atoms: _322  and  _325
REMARK  127  A    between atoms: _325  and  _326
REMARK  128  A    between atoms: _329  and  _331
REMARK  129  A    between atoms: _331  and  _332
REMARK  130  A    between atoms: _331  and  _334
REMARK  131  A    between atoms: _334  and  _335
REMARK  132  A    between atoms: _338  and  _340
REMARK  133  A    between atoms: _340  and  _341
REMARK  134  A    between atoms: _340  and  _343
REMARK  135  A    between atoms: _346  and  _348
REMARK  136  A    between atoms: _348  and  _349
REMARK  137  A    between atoms: _348  and  _351
REMARK  138  A    between atoms: _354  and  _356
REMARK  139  A    between atoms: _356  and  _357
REMARK  140  A    between atoms: _356  and  _359
REMARK  141  A    between atoms: _359  and  _360
REMARK  142  A    between atoms: _363  and  _365
REMARK  143  A    between atoms: _365  and  _366
REMARK  144  A    between atoms: _365  and  _368
REMARK  145  A    between atoms: _368  and  _369
REMARK  146  A    between atoms: _375  and  _377
REMARK  147  A    between atoms: _377  and  _378
REMARK  148  A    between atoms: _377  and  _380
REMARK  149  A    between atoms: _380  and  _381
REMARK  150  A    between atoms: _387  and  _389
REMARK  151  A    between atoms: _389  and  _390
REMARK  152  A    between atoms: _392  and  _394
REMARK  153  A    between atoms: _394  and  _395
REMARK  154  A    between atoms: _394  and  _397
REMARK  155  A    between atoms: _397  and  _398
REMARK  156  A    between atoms: _398  and  _399
REMARK  157  A    between atoms: _402  and  _404
REMARK  158  A    between atoms: _404  and  _405
REMARK  159  A    between atoms: _404  and  _407
REMARK  160  A    between atoms: _407  and  _408
REMARK  161  A    between atoms: _408  and  _409
REMARK  162  A    between atoms: _409  and  _410
REMARK  163  A    between atoms: _410  and  _411
REMARK  164  A    between atoms: _415  and  _417
REMARK  165  A    between atoms: _417  and  _418
REMARK  166  A    between atoms: _417  and  _420
REMARK  167  A    between atoms: _420  and  _421
REMARK  168  A    between atoms: _424  and  _426
REMARK  169  A    between atoms: _426  and  _427
REMARK  170  A    between atoms: _426  and  _429
REMARK  171  A    between atoms: _429  and  _430
REMARK  172  A    between atoms: _435  and  _436
REMARK  173  A    between atoms: _438  and  _440
REMARK  174  A    between atoms: _440  and  _441
REMARK  175  A    between atoms: _440  and  _443
REMARK  176  A    between atoms: _443  and  _444
REMARK  177  A    between atoms: _444  and  _445
REMARK  178  A    between atoms: _450  and  _452
REMARK  179  A    between atoms: _452  and  _453
REMARK  180  A    between atoms: _452  and  _455
REMARK  181  A    between atoms: _455  and  _456
REMARK  182  A    between atoms: _459  and  _461
REMARK  183  A    between atoms: _461  and  _462
REMARK  184  A    between atoms: _461  and  _464
REMARK  185  A    between atoms: _464  and  _465
REMARK  186  A    between atoms: _468  and  _470
REMARK  187  A    between atoms: _470  and  _471
REMARK  188  A    between atoms: _470  and  _473
REMARK  189  A    between atoms: _476  and  _478
REMARK  190  A    between atoms: _478  and  _479
REMARK  191  A    between atoms: _478  and  _481
REMARK  192  A    between atoms: _485  and  _486
REMARK  193  A    between atoms: _491  and  _493
REMARK  194  A    between atoms: _493  and  _494
REMARK  195  A    between atoms: _493  and  _496
REMARK  196  A    between atoms: _496  and  _497
REMARK  197  A    between atoms: _500  and  _502
REMARK  198  A    between atoms: _502  and  _503
REMARK  199  A    between atoms: _502  and  _505
REMARK  200  A    between atoms: _508  and  _510
REMARK  201  A    between atoms: _510  and  _511
REMARK  202  A    between atoms: _510  and  _513
REMARK  203  A    between atoms: _513  and  _514
REMARK  204  A    between atoms: _514  and  _515
REMARK  205  A    between atoms: _515  and  _516
REMARK  206  A    between atoms: _525  and  _527
REMARK  207  A    between atoms: _527  and  _528
REMARK  208  A    between atoms: _527  and  _530
REMARK  209  A    between atoms: _530  and  _531
REMARK  210  A    between atoms: _531  and  _532
REMARK  211  A    between atoms: _535  and  _537
REMARK  212  A    between atoms: _537  and  _538
REMARK  213  A    between atoms: _537  and  _540
REMARK  214  A    between atoms: _540  and  _541
REMARK  215  A    between atoms: _544  and  _546
REMARK  216  A    between atoms: _546  and  _547
REMARK  217  A    between atoms: _550  and  _552
REMARK  218  A    between atoms: _552  and  _553
REMARK  219  A    between atoms: _552  and  _555
REMARK  220  A    between atoms: _555  and  _556
REMARK  221  A    between atoms: _556  and  _557
REMARK  222  A    between atoms: _559  and  _561
REMARK  223  A    between atoms: _561  and  _562
REMARK  224  A    between atoms: _561  and  _564
REMARK  225  A    between atoms: _564  and  _565
REMARK  226  A    between atoms: _567  and  _569
REMARK  227  A    between atoms: _569  and  _570
REMARK  228  A    between atoms: _569  and  _572
REMARK  229  A    between atoms: _572  and  _573
REMARK  230  A    between atoms: _575  and  _577
REMARK  231  A    between atoms: _577  and  _578
REMARK  232  A    between atoms: _577  and  _580
REMARK  233  A    between atoms: _580  and  _581
REMARK  234  A    between atoms: _581  and  _582
REMARK  235  A    between atoms: _582  and  _583
REMARK  236  A    between atoms: _592  and  _594
REMARK  237  A    between atoms: _594  and  _595
REMARK  238  A    between atoms: _594  and  _597
REMARK  239  A    between atoms: _597  and  _598
REMARK  240  A    between atoms: _603  and  _605
REMARK  241  A    between atoms: _605  and  _606
REMARK  242  A    between atoms: _605  and  _608
REMARK  243  A    between atoms: _608  and  _609
REMARK  244  A    between atoms: _612  and  _614
REMARK  245  A    between atoms: _614  and  _615
REMARK  246  A    between atoms: _614  and  _617
REMARK  247  A    between atoms: _617  and  _618
REMARK  248  A    between atoms: _621  and  _623
REMARK  249  A    between atoms: _623  and  _624
REMARK  250  A    between atoms: _623  and  _626
REMARK  251  A    between atoms: _626  and  _627
REMARK                            x       y       z     vdW  Elec       q    Type
REMARK                         _______ _______ _______ _____ _____    ______ ____
ROOT
ATOM      1  O   HOH     1      10.438   9.406   3.257  0.00  0.00    +0.000 OA
ENDROOT
TORSDOF 0
REMARK  Name = ../refined-set-2016/3iod/3iod_pocket.pdb
REMARK  251 active torsions:
REMARK  status: ('A' for Active; 'I' for Inactive)
REMARK    1  A    between atoms: _1  and  _3
REMARK    2  A    between atoms: _3  and  _4
REMARK    3  A    between atoms: _3  and  _6
REMARK    4  A    between atoms: _6  and  _7
REMARK    5  A    between atoms: _10  and  _12
REMARK    6  A    between atoms: _12  and  _13
REMARK    7  A    between atoms: _12  and  _15
REMARK    8  A    between atoms: _19  and  _20
REMARK    9  A    between atoms: _25  and  _27
REMARK   10  A    between atoms: _27  and  _28
REMARK   11  A    between atoms: _27  and  _30
REMARK   12  A    between atoms: _30  and  _31
REMARK   13  A    between atoms: _34  and  _36
REMARK   14  A    between atoms: _36  and  _37
REMARK   15  A    between atoms: _36  and  _39
REMARK   16  A    between atoms: _39  and  _40
REMARK   17  A    between atoms: _40  and  _41
REMARK   18  A    between atoms: _43  and  _45
REMARK   19  A    between atoms: _45  and  _46
REMARK   20  A    between atoms: _48  and  _50
REMARK   21  A    between atoms: _50  and  _51
REMARK   22  A    between atoms: _54  and  _56
REMARK   23  A    between atoms: _56  and  _57
REMARK   24  A    between atoms: _56  and  _59
REMARK   25  A    between atoms: _59  and  _60
REMARK   26  A    between atoms: _63  and  _65
REMARK   27  A    between atoms: _65  and  _66
REMARK   28  A    between atoms: _65  and  _68
REMARK   29  A    between atoms: _68  and  _69
REMARK   30  A    between atoms: _74  and  _76
REMARK   31  A    between atoms: _76  and  _77
REMARK   32  A    between atoms: _76  and  _79
REMARK   33  A    between atoms: _79  and  _80
REMARK   34  A    between atoms: _80  and  _81
REMARK   35  A    between atoms: _84  and  _86
REMARK   36  A    between atoms: _86  and  _87
REMARK   37  A    between atoms: _89  and  _91
REMARK   38  A    between atoms: _91  and  _92
REMARK   39  A    between atoms: _91  and  _94
REMARK   40  A    between atoms: _94  and  _95
REMARK   41  A    between atoms: _100  and  _102
REMARK   42  A    between atoms: _102  and  _103
REMARK   43  A    between atoms: _102  and  _105
REMARK   44  A    between atoms: _105  and  _106
REMARK   45  A    between atoms: _109  and  _111
REMARK   46  A    between atoms: _111  and  _112
REMARK   47  A    between atoms: _115  and  _117
REMARK   48  A    between atoms: _117  and  _118
REMARK   49  A    between atoms: _117  and  _120
REMARK   50  A    between atoms: _120  and  _121
REMARK   51  A    between atoms: _124  and  _126
REMARK   52  A    between atoms: _126  and  _127
REMARK   53  A    between atoms: _126  and  _129
REMARK   54  A    between atoms: _132  and  _134
REMARK   55  A    between atoms: _134  and  _135
REMARK   56  A    between atoms: _134  and  _137
REMARK   57  A    between atoms: _140  and  _142
REMARK   58  A    between atoms: _142  and  _143
REMARK   59  A    between atoms: _142  and  _145
REMARK   60  A    between atoms: _145  and  _146
REMARK   61  A    between atoms: _148  and  _150
REMARK   62  A    between atoms: _150  and  _151
REMARK   63  A    between atoms: _150  and  _153
REMARK   64  A    between atoms: _153  and  _154
REMARK   65  A    between atoms: _157  and  _159
REMARK   66  A    between atoms: _159  and  _160
REMARK   67  A    between atoms: _159  and  _162
REMARK   68  A    between atoms: _162  and  _163
REMARK   69  A    between atoms: _169  and  _171
REMARK   70  A    between atoms: _171  and  _172
REMARK   71  A    between atoms: _171  and  _174
REMARK   72  A    between atoms: _177  and  _179
REMARK   73  A    between atoms: _179  and  _180
REMARK   74  A    between atoms: _179  and  _182
REMARK   75  A    between atoms: _182  and  _183
REMARK   76  A    between atoms: _189  and  _190
REMARK   77  A    between atoms: _195  and  _197
REMARK   78  A    between atoms: _197  and  _198
REMARK   79  A    between atoms: _197  and  _200
REMARK   80  A    between atoms: _200  and  _201
REMARK   81  A    between atoms: _201  and  _202
REMARK   82  A    between atoms: _204  and  _206
REMARK   83  A    between atoms: _206  and  _207
REMARK   84  A    between atoms: _206  and  _209
REMARK   85  A    between atoms: _209  and  _210
REMARK   86  A    between atoms: _210  and  _211
REMARK   87  A    between atoms: _216  and  _218
REMARK   88  A    between atoms: _218  and  _219
REMARK   89  A    between atoms: _218  and  _221
REMARK   90  A    between atoms: _221  and  _222
REMARK   91  A    between atoms: _228  and  _230
REMARK   92  A    between atoms: _230  and  _231
REMARK   93  A    between atoms: _230  and  _233
REMARK   94  A    between atoms: _233  and  _234
REMARK   95  A    between atoms: _239  and  _240
REMARK   96  A    between atoms: _242  and  _244
REMARK   97  A    between atoms: _244  and  _245
REMARK   98  A    between atoms: _244  and  _247
REMARK   99  A    between atoms: _247  and  _248
REMARK  100  A    between atoms: _255  and  _256
REMARK  101  A    between atoms: _261  and  _263
REMARK  102  A    between atoms: _263  and  _264
REMARK  103  A    between atoms: _263  and  _266
REMARK  104  A    between atoms: _266  and  _267
REMARK  105  A    between atoms: _267  and  _268
REMARK  106  A    between atoms: _270  and  _272
REMARK  107  A    between atoms: _272  and  _273
REMARK  108  A    between atoms: _272  and  _275
REMARK  109  A    between atoms: _275  and  _276
REMARK  110  A    between atoms: _281  and  _282
REMARK  111  A    between atoms: _284  and  _286
REMARK  112  A    between atoms: _286  and  _287
REMARK  113  A    between atoms: _286  and  _289
REMARK  114  A    between atoms: _289  and  _290
REMARK  115  A    between atoms: _295  and  _297
REMARK  116  A    between atoms: _297  and  _298
REMARK  117  A    between atoms: _297  and  _300
REMARK  118  A    between atoms: _300  and  _301
REMARK  119  A    between atoms: _307  and  _309
REMARK  120  A    between atoms: _309  and  _310
REMARK  121  A    between atoms: _312  and  _314
REMARK  122  A    between atoms: _314  and  _315
REMARK  123  A    between atoms: _314  and  _317
REMARK  124  A    between atoms: _320  and  _322
REMARK  125  A    between atoms: _322  and  _323
REMARK  126  A    between atoms: _322  and  _325
REMARK  127  A    between atoms: _325  and  _326
REMARK  128  A    between atoms: _329  and  _331
REMARK  129  A    between atoms: _331  and  _332
REMARK  130  A    between atoms: _331  and  _334
REMARK  131  A    between atoms: _334  and  _335
REMARK  132  A    between atoms: _338  and  _340
REMARK  133  A    between atoms: _340  and  _341
REMARK  134  A    between atoms: _340  and  _343
REMARK  135  A    between atoms: _346  and  _348
REMARK  136  A    between atoms: _348  and  _349
REMARK  137  A    between atoms: _348  and  _351
REMARK  138  A    between atoms: _354  and  _356
REMARK  139  A    between atoms: _356  and  _357
REMARK  140  A    between atoms: _356  and  _359
REMARK  141  A    between atoms: _359  and  _360
REMARK  142  A    between atoms: _363  and  _365
REMARK  143  A    between atoms: _365  and  _366
REMARK  144  A    between atoms: _365  and  _368
REMARK  145  A    between atoms: _368  and  _369
REMARK  146  A    between atoms: _375  and  _377
REMARK  147  A    between atoms: _377  and  _378
REMARK  148  A    between atoms: _377  and  _380
REMARK  149  A    between atoms: _380  and  _381
REMARK  150  A    between atoms: _387  and  _389
REMARK  151  A    between atoms: _389  and  _390
REMARK  152  A    between atoms: _392  and  _394
REMARK  153  A    between atoms: _394  and  _395
REMARK  154  A    between atoms: _394  and  _397
REMARK  155  A    between atoms: _397  and  _398
REMARK  156  A    between atoms: _398  and  _399
REMARK  157  A    between atoms: _402  and  _404
REMARK  158  A    between atoms: _404  and  _405
REMARK  159  A    between atoms: _404  and  _407
REMARK  160  A    between atoms: _407  and  _408
REMARK  161  A    between atoms: _408  and  _409
REMARK  162  A    between atoms: _409  and  _410
REMARK  163  A    between atoms: _410  and  _411
REMARK  164  A    between atoms: _415  and  _417
REMARK  165  A    between atoms: _417  and  _418
REMARK  166  A    between atoms: _417  and  _420
REMARK  167  A    between atoms: _420  and  _421
REMARK  168  A    between atoms: _424  and  _426
REMARK  169  A    between atoms: _426  and  _427
REMARK  170  A    between atoms: _426  and  _429
REMARK  171  A    between atoms: _429  and  _430
REMARK  172  A    between atoms: _435  and  _436
REMARK  173  A    between atoms: _438  and  _440
REMARK  174  A    between atoms: _440  and  _441
REMARK  175  A    between atoms: _440  and  _443
REMARK  176  A    between atoms: _443  and  _444
REMARK  177  A    between atoms: _444  and  _445
REMARK  178  A    between atoms: _450  and  _452
REMARK  179  A    between atoms: _452  and  _453
REMARK  180  A    between atoms: _452  and  _455
REMARK  181  A    between atoms: _455  and  _456
REMARK  182  A    between atoms: _459  and  _461
REMARK  183  A    between atoms: _461  and  _462
REMARK  184  A    between atoms: _461  and  _464
REMARK  185  A    between atoms: _464  and  _465
REMARK  186  A    between atoms: _468  and  _470
REMARK  187  A    between atoms: _470  and  _471
REMARK  188  A    between atoms: _470  and  _473
REMARK  189  A    between atoms: _476  and  _478
REMARK  190  A    between atoms: _478  and  _479
REMARK  191  A    between atoms: _478  and  _481
REMARK  192  A    between atoms: _485  and  _486
REMARK  193  A    between atoms: _491  and  _493
REMARK  194  A    between atoms: _493  and  _494
REMARK  195  A    between atoms: _493  and  _496
REMARK  196  A    between atoms: _496  and  _497
REMARK  197  A    between atoms: _500  and  _502
REMARK  198  A    between atoms: _502  and  _503
REMARK  199  A    between atoms: _502  and  _505
REMARK  200  A    between atoms: _508  and  _510
REMARK  201  A    between atoms: _510  and  _511
REMARK  202  A    between atoms: _510  and  _513
REMARK  203  A    between atoms: _513  and  _514
REMARK  204  A    between atoms: _514  and  _515
REMARK  205  A    between atoms: _515  and  _516
REMARK  206  A    between atoms: _525  and  _527
REMARK  207  A    between atoms: _527  and  _528
REMARK  208  A    between atoms: _527  and  _530
REMARK  209  A    between atoms: _530  and  _531
REMARK  210  A    between atoms: _531  and  _532
REMARK  211  A    between atoms: _535  and  _537
REMARK  212  A    between atoms: _537  and  _538
REMARK  213  A    between atoms: _537  and  _540
REMARK  214  A    between atoms: _540  and  _541
REMARK  215  A    between atoms: _544  and  _546
REMARK  216  A    between atoms: _546  and  _547
REMARK  217  A    between atoms: _550  and  _552
REMARK  218  A    between atoms: _552  and  _553
REMARK  219  A    between atoms: _552  and  _555
REMARK  220  A    between atoms: _555  and  _556
REMARK  221  A    between atoms: _556  and  _557
REMARK  222  A    between atoms: _559  and  _561
REMARK  223  A    between atoms: _561  and  _562
REMARK  224  A    between atoms: _561  and  _564
REMARK  225  A    between atoms: _564  and  _565
REMARK  226  A    between atoms: _567  and  _569
REMARK  227  A    between atoms: _569  and  _570
REMARK  228  A    between atoms: _569  and  _572
REMARK  229  A    between atoms: _572  and  _573
REMARK  230  A    between atoms: _575  and  _577
REMARK  231  A    between atoms: _577  and  _578
REMARK  232  A    between atoms: _577  and  _580
REMARK  233  A    between atoms: _580  and  _581
REMARK  234  A    between atoms: _581  and  _582
REMARK  235  A    between atoms: _582  and  _583
REMARK  236  A    between atoms: _592  and  _594
REMARK  237  A    between atoms: _594  and  _595
REMARK  238  A    between atoms: _594  and  _597
REMARK  239  A    between atoms: _597  and  _598
REMARK  240  A    between atoms: _603  and  _605
REMARK  241  A    between atoms: _605  and  _606
REMARK  242  A    between atoms: _605  and  _608
REMARK  243  A    between atoms: _608  and  _609
REMARK  244  A    between atoms: _612  and  _614
REMARK  245  A    between atoms: _614  and  _615
REMARK  246  A    between atoms: _614  and  _617
REMARK  247  A    between atoms: _617  and  _618
REMARK  248  A    between atoms: _621  and  _623
REMARK  249  A    between atoms: _623  and  _624
REMARK  250  A    between atoms: _623  and  _626
REMARK  251  A    between atoms: _626  and  _627
REMARK                            x       y       z     vdW  Elec       q    Type
REMARK                         _______ _______ _______ _____ _____    ______ ____
ROOT
ATOM      1  O   HOH     1      20.983   8.619   7.216  0.00  0.00    +0.000 OA
ENDROOT
TORSDOF 0
REMARK  Name = ../refined-set-2016/3iod/3iod_pocket.pdb
REMARK  251 active torsions:
REMARK  status: ('A' for Active; 'I' for Inactive)
REMARK    1  A    between atoms: _1  and  _3
REMARK    2  A    between atoms: _3  and  _4
REMARK    3  A    between atoms: _3  and  _6
REMARK    4  A    between atoms: _6  and  _7
REMARK    5  A    between atoms: _10  and  _12
REMARK    6  A    between atoms: _12  and  _13
REMARK    7  A    between atoms: _12  and  _15
REMARK    8  A    between atoms: _19  and  _20
REMARK    9  A    between atoms: _25  and  _27
REMARK   10  A    between atoms: _27  and  _28
REMARK   11  A    between atoms: _27  and  _30
REMARK   12  A    between atoms: _30  and  _31
REMARK   13  A    between atoms: _34  and  _36
REMARK   14  A    between atoms: _36  and  _37
REMARK   15  A    between atoms: _36  and  _39
REMARK   16  A    between atoms: _39  and  _40
REMARK   17  A    between atoms: _40  and  _41
REMARK   18  A    between atoms: _43  and  _45
REMARK   19  A    between atoms: _45  and  _46
REMARK   20  A    between atoms: _48  and  _50
REMARK   21  A    between atoms: _50  and  _51
REMARK   22  A    between atoms: _54  and  _56
REMARK   23  A    between atoms: _56  and  _57
REMARK   24  A    between atoms: _56  and  _59
REMARK   25  A    between atoms: _59  and  _60
REMARK   26  A    between atoms: _63  and  _65
REMARK   27  A    between atoms: _65  and  _66
REMARK   28  A    between atoms: _65  and  _68
REMARK   29  A    between atoms: _68  and  _69
REMARK   30  A    between atoms: _74  and  _76
REMARK   31  A    between atoms: _76  and  _77
REMARK   32  A    between atoms: _76  and  _79
REMARK   33  A    between atoms: _79  and  _80
REMARK   34  A    between atoms: _80  and  _81
REMARK   35  A    between atoms: _84  and  _86
REMARK   36  A    between atoms: _86  and  _87
REMARK   37  A    between atoms: _89  and  _91
REMARK   38  A    between atoms: _91  and  _92
REMARK   39  A    between atoms: _91  and  _94
REMARK   40  A    between atoms: _94  and  _95
REMARK   41  A    between atoms: _100  and  _102
REMARK   42  A    between atoms: _102  and  _103
REMARK   43  A    between atoms: _102  and  _105
REMARK   44  A    between atoms: _105  and  _106
REMARK   45  A    between atoms: _109  and  _111
REMARK   46  A    between atoms: _111  and  _112
REMARK   47  A    between atoms: _115  and  _117
REMARK   48  A    between atoms: _117  and  _118
REMARK   49  A    between atoms: _117  and  _120
REMARK   50  A    between atoms: _120  and  _121
REMARK   51  A    between atoms: _124  and  _126
REMARK   52  A    between atoms: _126  and  _127
REMARK   53  A    between atoms: _126  and  _129
REMARK   54  A    between atoms: _132  and  _134
REMARK   55  A    between atoms: _134  and  _135
REMARK   56  A    between atoms: _134  and  _137
REMARK   57  A    between atoms: _140  and  _142
REMARK   58  A    between atoms: _142  and  _143
REMARK   59  A    between atoms: _142  and  _145
REMARK   60  A    between atoms: _145  and  _146
REMARK   61  A    between atoms: _148  and  _150
REMARK   62  A    between atoms: _150  and  _151
REMARK   63  A    between atoms: _150  and  _153
REMARK   64  A    between atoms: _153  and  _154
REMARK   65  A    between atoms: _157  and  _159
REMARK   66  A    between atoms: _159  and  _160
REMARK   67  A    between atoms: _159  and  _162
REMARK   68  A    between atoms: _162  and  _163
REMARK   69  A    between atoms: _169  and  _171
REMARK   70  A    between atoms: _171  and  _172
REMARK   71  A    between atoms: _171  and  _174
REMARK   72  A    between atoms: _177  and  _179
REMARK   73  A    between atoms: _179  and  _180
REMARK   74  A    between atoms: _179  and  _182
REMARK   75  A    between atoms: _182  and  _183
REMARK   76  A    between atoms: _189  and  _190
REMARK   77  A    between atoms: _195  and  _197
REMARK   78  A    between atoms: _197  and  _198
REMARK   79  A    between atoms: _197  and  _200
REMARK   80  A    between atoms: _200  and  _201
REMARK   81  A    between atoms: _201  and  _202
REMARK   82  A    between atoms: _204  and  _206
REMARK   83  A    between atoms: _206  and  _207
REMARK   84  A    between atoms: _206  and  _209
REMARK   85  A    between atoms: _209  and  _210
REMARK   86  A    between atoms: _210  and  _211
REMARK   87  A    between atoms: _216  and  _218
REMARK   88  A    between atoms: _218  and  _219
REMARK   89  A    between atoms: _218  and  _221
REMARK   90  A    between atoms: _221  and  _222
REMARK   91  A    between atoms: _228  and  _230
REMARK   92  A    between atoms: _230  and  _231
REMARK   93  A    between atoms: _230  and  _233
REMARK   94  A    between atoms: _233  and  _234
REMARK   95  A    between atoms: _239  and  _240
REMARK   96  A    between atoms: _242  and  _244
REMARK   97  A    between atoms: _244  and  _245
REMARK   98  A    between atoms: _244  and  _247
REMARK   99  A    between atoms: _247  and  _248
REMARK  100  A    between atoms: _255  and  _256
REMARK  101  A    between atoms: _261  and  _263
REMARK  102  A    between atoms: _263  and  _264
REMARK  103  A    between atoms: _263  and  _266
REMARK  104  A    between atoms: _266  and  _267
REMARK  105  A    between atoms: _267  and  _268
REMARK  106  A    between atoms: _270  and  _272
REMARK  107  A    between atoms: _272  and  _273
REMARK  108  A    between atoms: _272  and  _275
REMARK  109  A    between atoms: _275  and  _276
REMARK  110  A    between atoms: _281  and  _282
REMARK  111  A    between atoms: _284  and  _286
REMARK  112  A    between atoms: _286  and  _287
REMARK  113  A    between atoms: _286  and  _289
REMARK  114  A    between atoms: _289  and  _290
REMARK  115  A    between atoms: _295  and  _297
REMARK  116  A    between atoms: _297  and  _298
REMARK  117  A    between atoms: _297  and  _300
REMARK  118  A    between atoms: _300  and  _301
REMARK  119  A    between atoms: _307  and  _309
REMARK  120  A    between atoms: _309  and  _310
REMARK  121  A    between atoms: _312  and  _314
REMARK  122  A    between atoms: _314  and  _315
REMARK  123  A    between atoms: _314  and  _317
REMARK  124  A    between atoms: _320  and  _322
REMARK  125  A    between atoms: _322  and  _323
REMARK  126  A    between atoms: _322  and  _325
REMARK  127  A    between atoms: _325  and  _326
REMARK  128  A    between atoms: _329  and  _331
REMARK  129  A    between atoms: _331  and  _332
REMARK  130  A    between atoms: _331  and  _334
REMARK  131  A    between atoms: _334  and  _335
REMARK  132  A    between atoms: _338  and  _340
REMARK  133  A    between atoms: _340  and  _341
REMARK  134  A    between atoms: _340  and  _343
REMARK  135  A    between atoms: _346  and  _348
REMARK  136  A    between atoms: _348  and  _349
REMARK  137  A    between atoms: _348  and  _351
REMARK  138  A    between atoms: _354  and  _356
REMARK  139  A    between atoms: _356  and  _357
REMARK  140  A    between atoms: _356  and  _359
REMARK  141  A    between atoms: _359  and  _360
REMARK  142  A    between atoms: _363  and  _365
REMARK  143  A    between atoms: _365  and  _366
REMARK  144  A    between atoms: _365  and  _368
REMARK  145  A    between atoms: _368  and  _369
REMARK  146  A    between atoms: _375  and  _377
REMARK  147  A    between atoms: _377  and  _378
REMARK  148  A    between atoms: _377  and  _380
REMARK  149  A    between atoms: _380  and  _381
REMARK  150  A    between atoms: _387  and  _389
REMARK  151  A    between atoms: _389  and  _390
REMARK  152  A    between atoms: _392  and  _394
REMARK  153  A    between atoms: _394  and  _395
REMARK  154  A    between atoms: _394  and  _397
REMARK  155  A    between atoms: _397  and  _398
REMARK  156  A    between atoms: _398  and  _399
REMARK  157  A    between atoms: _402  and  _404
REMARK  158  A    between atoms: _404  and  _405
REMARK  159  A    between atoms: _404  and  _407
REMARK  160  A    between atoms: _407  and  _408
REMARK  161  A    between atoms: _408  and  _409
REMARK  162  A    between atoms: _409  and  _410
REMARK  163  A    between atoms: _410  and  _411
REMARK  164  A    between atoms: _415  and  _417
REMARK  165  A    between atoms: _417  and  _418
REMARK  166  A    between atoms: _417  and  _420
REMARK  167  A    between atoms: _420  and  _421
REMARK  168  A    between atoms: _424  and  _426
REMARK  169  A    between atoms: _426  and  _427
REMARK  170  A    between atoms: _426  and  _429
REMARK  171  A    between atoms: _429  and  _430
REMARK  172  A    between atoms: _435  and  _436
REMARK  173  A    between atoms: _438  and  _440
REMARK  174  A    between atoms: _440  and  _441
REMARK  175  A    between atoms: _440  and  _443
REMARK  176  A    between atoms: _443  and  _444
REMARK  177  A    between atoms: _444  and  _445
REMARK  178  A    between atoms: _450  and  _452
REMARK  179  A    between atoms: _452  and  _453
REMARK  180  A    between atoms: _452  and  _455
REMARK  181  A    between atoms: _455  and  _456
REMARK  182  A    between atoms: _459  and  _461
REMARK  183  A    between atoms: _461  and  _462
REMARK  184  A    between atoms: _461  and  _464
REMARK  185  A    between atoms: _464  and  _465
REMARK  186  A    between atoms: _468  and  _470
REMARK  187  A    between atoms: _470  and  _471
REMARK  188  A    between atoms: _470  and  _473
REMARK  189  A    between atoms: _476  and  _478
REMARK  190  A    between atoms: _478  and  _479
REMARK  191  A    between atoms: _478  and  _481
REMARK  192  A    between atoms: _485  and  _486
REMARK  193  A    between atoms: _491  and  _493
REMARK  194  A    between atoms: _493  and  _494
REMARK  195  A    between atoms: _493  and  _496
REMARK  196  A    between atoms: _496  and  _497
REMARK  197  A    between atoms: _500  and  _502
REMARK  198  A    between atoms: _502  and  _503
REMARK  199  A    between atoms: _502  and  _505
REMARK  200  A    between atoms: _508  and  _510
REMARK  201  A    between atoms: _510  and  _511
REMARK  202  A    between atoms: _510  and  _513
REMARK  203  A    between atoms: _513  and  _514
REMARK  204  A    between atoms: _514  and  _515
REMARK  205  A    between atoms: _515  and  _516
REMARK  206  A    between atoms: _525  and  _527
REMARK  207  A    between atoms: _527  and  _528
REMARK  208  A    between atoms: _527  and  _530
REMARK  209  A    between atoms: _530  and  _531
REMARK  210  A    between atoms: _531  and  _532
REMARK  211  A    between atoms: _535  and  _537
REMARK  212  A    between atoms: _537  and  _538
REMARK  213  A    between atoms: _537  and  _540
REMARK  214  A    between atoms: _540  and  _541
REMARK  215  A    between atoms: _544  and  _546
REMARK  216  A    between atoms: _546  and  _547
REMARK  217  A    between atoms: _550  and  _552
REMARK  218  A    between atoms: _552  and  _553
REMARK  219  A    between atoms: _552  and  _555
REMARK  220  A    between atoms: _555  and  _556
REMARK  221  A    between atoms: _556  and  _557
REMARK  222  A    between atoms: _559  and  _561
REMARK  223  A    between atoms: _561  and  _562
REMARK  224  A    between atoms: _561  and  _564
REMARK  225  A    between atoms: _564  and  _565
REMARK  226  A    between atoms: _567  and  _569
REMARK  227  A    between atoms: _569  and  _570
REMARK  228  A    between atoms: _569  and  _572
REMARK  229  A    between atoms: _572  and  _573
REMARK  230  A    between atoms: _575  and  _577
REMARK  231  A    between atoms: _577  and  _578
REMARK  232  A    between atoms: _577  and  _580
REMARK  233  A    between atoms: _580  and  _581
REMARK  234  A    between atoms: _581  and  _582
REMARK  235  A    between atoms: _582  and  _583
REMARK  236  A    between atoms: _592  and  _594
REMARK  237  A    between atoms: _594  and  _595
REMARK  238  A    between atoms: _594  and  _597
REMARK  239  A    between atoms: _597  and  _598
REMARK  240  A    between atoms: _603  and  _605
REMARK  241  A    between atoms: _605  and  _606
REMARK  242  A    between atoms: _605  and  _608
REMARK  243  A    between atoms: _608  and  _609
REMARK  244  A    between atoms: _612  and  _614
REMARK  245  A    between atoms: _614  and  _615
REMARK  246  A    between atoms: _614  and  _617
REMARK  247  A    between atoms: _617  and  _618
REMARK  248  A    between atoms: _621  and  _623
REMARK  249  A    between atoms: _623  and  _624
REMARK  250  A    between atoms: _623  and  _626
REMARK  251  A    between atoms: _626  and  _627
REMARK                            x       y       z     vdW  Elec       q    Type
REMARK                         _______ _______ _______ _____ _____    ______ ____
ROOT
ATOM      1  O   HOH     1      22.695   9.813  -6.390  0.00  0.00    +0.000 OA
ENDROOT
TORSDOF 0
REMARK  Name = ../refined-set-2016/3iod/3iod_pocket.pdb
REMARK  251 active torsions:
REMARK  status: ('A' for Active; 'I' for Inactive)
REMARK    1  A    between atoms: _1  and  _3
REMARK    2  A    between atoms: _3  and  _4
REMARK    3  A    between atoms: _3  and  _6
REMARK    4  A    between atoms: _6  and  _7
REMARK    5  A    between atoms: _10  and  _12
REMARK    6  A    between atoms: _12  and  _13
REMARK    7  A    between atoms: _12  and  _15
REMARK    8  A    between atoms: _19  and  _20
REMARK    9  A    between atoms: _25  and  _27
REMARK   10  A    between atoms: _27  and  _28
REMARK   11  A    between atoms: _27  and  _30
REMARK   12  A    between atoms: _30  and  _31
REMARK   13  A    between atoms: _34  and  _36
REMARK   14  A    between atoms: _36  and  _37
REMARK   15  A    between atoms: _36  and  _39
REMARK   16  A    between atoms: _39  and  _40
REMARK   17  A    between atoms: _40  and  _41
REMARK   18  A    between atoms: _43  and  _45
REMARK   19  A    between atoms: _45  and  _46
REMARK   20  A    between atoms: _48  and  _50
REMARK   21  A    between atoms: _50  and  _51
REMARK   22  A    between atoms: _54  and  _56
REMARK   23  A    between atoms: _56  and  _57
REMARK   24  A    between atoms: _56  and  _59
REMARK   25  A    between atoms: _59  and  _60
REMARK   26  A    between atoms: _63  and  _65
REMARK   27  A    between atoms: _65  and  _66
REMARK   28  A    between atoms: _65  and  _68
REMARK   29  A    between atoms: _68  and  _69
REMARK   30  A    between atoms: _74  and  _76
REMARK   31  A    between atoms: _76  and  _77
REMARK   32  A    between atoms: _76  and  _79
REMARK   33  A    between atoms: _79  and  _80
REMARK   34  A    between atoms: _80  and  _81
REMARK   35  A    between atoms: _84  and  _86
REMARK   36  A    between atoms: _86  and  _87
REMARK   37  A    between atoms: _89  and  _91
REMARK   38  A    between atoms: _91  and  _92
REMARK   39  A    between atoms: _91  and  _94
REMARK   40  A    between atoms: _94  and  _95
REMARK   41  A    between atoms: _100  and  _102
REMARK   42  A    between atoms: _102  and  _103
REMARK   43  A    between atoms: _102  and  _105
REMARK   44  A    between atoms: _105  and  _106
REMARK   45  A    between atoms: _109  and  _111
REMARK   46  A    between atoms: _111  and  _112
REMARK   47  A    between atoms: _115  and  _117
REMARK   48  A    between atoms: _117  and  _118
REMARK   49  A    between atoms: _117  and  _120
REMARK   50  A    between atoms: _120  and  _121
REMARK   51  A    between atoms: _124  and  _126
REMARK   52  A    between atoms: _126  and  _127
REMARK   53  A    between atoms: _126  and  _129
REMARK   54  A    between atoms: _132  and  _134
REMARK   55  A    between atoms: _134  and  _135
REMARK   56  A    between atoms: _134  and  _137
REMARK   57  A    between atoms: _140  and  _142
REMARK   58  A    between atoms: _142  and  _143
REMARK   59  A    between atoms: _142  and  _145
REMARK   60  A    between atoms: _145  and  _146
REMARK   61  A    between atoms: _148  and  _150
REMARK   62  A    between atoms: _150  and  _151
REMARK   63  A    between atoms: _150  and  _153
REMARK   64  A    between atoms: _153  and  _154
REMARK   65  A    between atoms: _157  and  _159
REMARK   66  A    between atoms: _159  and  _160
REMARK   67  A    between atoms: _159  and  _162
REMARK   68  A    between atoms: _162  and  _163
REMARK   69  A    between atoms: _169  and  _171
REMARK   70  A    between atoms: _171  and  _172
REMARK   71  A    between atoms: _171  and  _174
REMARK   72  A    between atoms: _177  and  _179
REMARK   73  A    between atoms: _179  and  _180
REMARK   74  A    between atoms: _179  and  _182
REMARK   75  A    between atoms: _182  and  _183
REMARK   76  A    between atoms: _189  and  _190
REMARK   77  A    between atoms: _195  and  _197
REMARK   78  A    between atoms: _197  and  _198
REMARK   79  A    between atoms: _197  and  _200
REMARK   80  A    between atoms: _200  and  _201
REMARK   81  A    between atoms: _201  and  _202
REMARK   82  A    between atoms: _204  and  _206
REMARK   83  A    between atoms: _206  and  _207
REMARK   84  A    between atoms: _206  and  _209
REMARK   85  A    between atoms: _209  and  _210
REMARK   86  A    between atoms: _210  and  _211
REMARK   87  A    between atoms: _216  and  _218
REMARK   88  A    between atoms: _218  and  _219
REMARK   89  A    between atoms: _218  and  _221
REMARK   90  A    between atoms: _221  and  _222
REMARK   91  A    between atoms: _228  and  _230
REMARK   92  A    between atoms: _230  and  _231
REMARK   93  A    between atoms: _230  and  _233
REMARK   94  A    between atoms: _233  and  _234
REMARK   95  A    between atoms: _239  and  _240
REMARK   96  A    between atoms: _242  and  _244
REMARK   97  A    between atoms: _244  and  _245
REMARK   98  A    between atoms: _244  and  _247
REMARK   99  A    between atoms: _247  and  _248
REMARK  100  A    between atoms: _255  and  _256
REMARK  101  A    between atoms: _261  and  _263
REMARK  102  A    between atoms: _263  and  _264
REMARK  103  A    between atoms: _263  and  _266
REMARK  104  A    between atoms: _266  and  _267
REMARK  105  A    between atoms: _267  and  _268
REMARK  106  A    between atoms: _270  and  _272
REMARK  107  A    between atoms: _272  and  _273
REMARK  108  A    between atoms: _272  and  _275
REMARK  109  A    between atoms: _275  and  _276
REMARK  110  A    between atoms: _281  and  _282
REMARK  111  A    between atoms: _284  and  _286
REMARK  112  A    between atoms: _286  and  _287
REMARK  113  A    between atoms: _286  and  _289
REMARK  114  A    between atoms: _289  and  _290
REMARK  115  A    between atoms: _295  and  _297
REMARK  116  A    between atoms: _297  and  _298
REMARK  117  A    between atoms: _297  and  _300
REMARK  118  A    between atoms: _300  and  _301
REMARK  119  A    between atoms: _307  and  _309
REMARK  120  A    between atoms: _309  and  _310
REMARK  121  A    between atoms: _312  and  _314
REMARK  122  A    between atoms: _314  and  _315
REMARK  123  A    between atoms: _314  and  _317
REMARK  124  A    between atoms: _320  and  _322
REMARK  125  A    between atoms: _322  and  _323
REMARK  126  A    between atoms: _322  and  _325
REMARK  127  A    between atoms: _325  and  _326
REMARK  128  A    between atoms: _329  and  _331
REMARK  129  A    between atoms: _331  and  _332
REMARK  130  A    between atoms: _331  and  _334
REMARK  131  A    between atoms: _334  and  _335
REMARK  132  A    between atoms: _338  and  _340
REMARK  133  A    between atoms: _340  and  _341
REMARK  134  A    between atoms: _340  and  _343
REMARK  135  A    between atoms: _346  and  _348
REMARK  136  A    between atoms: _348  and  _349
REMARK  137  A    between atoms: _348  and  _351
REMARK  138  A    between atoms: _354  and  _356
REMARK  139  A    between atoms: _356  and  _357
REMARK  140  A    between atoms: _356  and  _359
REMARK  141  A    between atoms: _359  and  _360
REMARK  142  A    between atoms: _363  and  _365
REMARK  143  A    between atoms: _365  and  _366
REMARK  144  A    between atoms: _365  and  _368
REMARK  145  A    between atoms: _368  and  _369
REMARK  146  A    between atoms: _375  and  _377
REMARK  147  A    between atoms: _377  and  _378
REMARK  148  A    between atoms: _377  and  _380
REMARK  149  A    between atoms: _380  and  _381
REMARK  150  A    between atoms: _387  and  _389
REMARK  151  A    between atoms: _389  and  _390
REMARK  152  A    between atoms: _392  and  _394
REMARK  153  A    between atoms: _394  and  _395
REMARK  154  A    between atoms: _394  and  _397
REMARK  155  A    between atoms: _397  and  _398
REMARK  156  A    between atoms: _398  and  _399
REMARK  157  A    between atoms: _402  and  _404
REMARK  158  A    between atoms: _404  and  _405
REMARK  159  A    between atoms: _404  and  _407
REMARK  160  A    between atoms: _407  and  _408
REMARK  161  A    between atoms: _408  and  _409
REMARK  162  A    between atoms: _409  and  _410
REMARK  163  A    between atoms: _410  and  _411
REMARK  164  A    between atoms: _415  and  _417
REMARK  165  A    between atoms: _417  and  _418
REMARK  166  A    between atoms: _417  and  _420
REMARK  167  A    between atoms: _420  and  _421
REMARK  168  A    between atoms: _424  and  _426
REMARK  169  A    between atoms: _426  and  _427
REMARK  170  A    between atoms: _426  and  _429
REMARK  171  A    between atoms: _429  and  _430
REMARK  172  A    between atoms: _435  and  _436
REMARK  173  A    between atoms: _438  and  _440
REMARK  174  A    between atoms: _440  and  _441
REMARK  175  A    between atoms: _440  and  _443
REMARK  176  A    between atoms: _443  and  _444
REMARK  177  A    between atoms: _444  and  _445
REMARK  178  A    between atoms: _450  and  _452
REMARK  179  A    between atoms: _452  and  _453
REMARK  180  A    between atoms: _452  and  _455
REMARK  181  A    between atoms: _455  and  _456
REMARK  182  A    between atoms: _459  and  _461
REMARK  183  A    between atoms: _461  and  _462
REMARK  184  A    between atoms: _461  and  _464
REMARK  185  A    between atoms: _464  and  _465
REMARK  186  A    between atoms: _468  and  _470
REMARK  187  A    between atoms: _470  and  _471
REMARK  188  A    between atoms: _470  and  _473
REMARK  189  A    between atoms: _476  and  _478
REMARK  190  A    between atoms: _478  and  _479
REMARK  191  A    between atoms: _478  and  _481
REMARK  192  A    between atoms: _485  and  _486
REMARK  193  A    between atoms: _491  and  _493
REMARK  194  A    between atoms: _493  and  _494
REMARK  195  A    between atoms: _493  and  _496
REMARK  196  A    between atoms: _496  and  _497
REMARK  197  A    between atoms: _500  and  _502
REMARK  198  A    between atoms: _502  and  _503
REMARK  199  A    between atoms: _502  and  _505
REMARK  200  A    between atoms: _508  and  _510
REMARK  201  A    between atoms: _510  and  _511
REMARK  202  A    between atoms: _510  and  _513
REMARK  203  A    between atoms: _513  and  _514
REMARK  204  A    between atoms: _514  and  _515
REMARK  205  A    between atoms: _515  and  _516
REMARK  206  A    between atoms: _525  and  _527
REMARK  207  A    between atoms: _527  and  _528
REMARK  208  A    between atoms: _527  and  _530
REMARK  209  A    between atoms: _530  and  _531
REMARK  210  A    between atoms: _531  and  _532
REMARK  211  A    between atoms: _535  and  _537
REMARK  212  A    between atoms: _537  and  _538
REMARK  213  A    between atoms: _537  and  _540
REMARK  214  A    between atoms: _540  and  _541
REMARK  215  A    between atoms: _544  and  _546
REMARK  216  A    between atoms: _546  and  _547
REMARK  217  A    between atoms: _550  and  _552
REMARK  218  A    between atoms: _552  and  _553
REMARK  219  A    between atoms: _552  and  _555
REMARK  220  A    between atoms: _555  and  _556
REMARK  221  A    between atoms: _556  and  _557
REMARK  222  A    between atoms: _559  and  _561
REMARK  223  A    between atoms: _561  and  _562
REMARK  224  A    between atoms: _561  and  _564
REMARK  225  A    between atoms: _564  and  _565
REMARK  226  A    between atoms: _567  and  _569
REMARK  227  A    between atoms: _569  and  _570
REMARK  228  A    between atoms: _569  and  _572
REMARK  229  A    between atoms: _572  and  _573
REMARK  230  A    between atoms: _575  and  _577
REMARK  231  A    between atoms: _577  and  _578
REMARK  232  A    between atoms: _577  and  _580
REMARK  233  A    between atoms: _580  and  _581
REMARK  234  A    between atoms: _581  and  _582
REMARK  235  A    between atoms: _582  and  _583
REMARK  236  A    between atoms: _592  and  _594
REMARK  237  A    between atoms: _594  and  _595
REMARK  238  A    between atoms: _594  and  _597
REMARK  239  A    between atoms: _597  and  _598
REMARK  240  A    between atoms: _603  and  _605
REMARK  241  A    between atoms: _605  and  _606
REMARK  242  A    between atoms: _605  and  _608
REMARK  243  A    between atoms: _608  and  _609
REMARK  244  A    between atoms: _612  and  _614
REMARK  245  A    between atoms: _614  and  _615
REMARK  246  A    between atoms: _614  and  _617
REMARK  247  A    between atoms: _617  and  _618
REMARK  248  A    between atoms: _621  and  _623
REMARK  249  A    between atoms: _623  and  _624
REMARK  250  A    between atoms: _623  and  _626
REMARK  251  A    between atoms: _626  and  _627
REMARK                            x       y       z     vdW  Elec       q    Type
REMARK                         _______ _______ _______ _____ _____    ______ ____
ROOT
ATOM      1  O   HOH     1      22.772   8.325  -3.913  0.00  0.00    +0.000 OA
ENDROOT
TORSDOF 0
REMARK  Name = ../refined-set-2016/3iod/3iod_pocket.pdb
REMARK  251 active torsions:
REMARK  status: ('A' for Active; 'I' for Inactive)
REMARK    1  A    between atoms: _1  and  _3
REMARK    2  A    between atoms: _3  and  _4
REMARK    3  A    between atoms: _3  and  _6
REMARK    4  A    between atoms: _6  and  _7
REMARK    5  A    between atoms: _10  and  _12
REMARK    6  A    between atoms: _12  and  _13
REMARK    7  A    between atoms: _12  and  _15
REMARK    8  A    between atoms: _19  and  _20
REMARK    9  A    between atoms: _25  and  _27
REMARK   10  A    between atoms: _27  and  _28
REMARK   11  A    between atoms: _27  and  _30
REMARK   12  A    between atoms: _30  and  _31
REMARK   13  A    between atoms: _34  and  _36
REMARK   14  A    between atoms: _36  and  _37
REMARK   15  A    between atoms: _36  and  _39
REMARK   16  A    between atoms: _39  and  _40
REMARK   17  A    between atoms: _40  and  _41
REMARK   18  A    between atoms: _43  and  _45
REMARK   19  A    between atoms: _45  and  _46
REMARK   20  A    between atoms: _48  and  _50
REMARK   21  A    between atoms: _50  and  _51
REMARK   22  A    between atoms: _54  and  _56
REMARK   23  A    between atoms: _56  and  _57
REMARK   24  A    between atoms: _56  and  _59
REMARK   25  A    between atoms: _59  and  _60
REMARK   26  A    between atoms: _63  and  _65
REMARK   27  A    between atoms: _65  and  _66
REMARK   28  A    between atoms: _65  and  _68
REMARK   29  A    between atoms: _68  and  _69
REMARK   30  A    between atoms: _74  and  _76
REMARK   31  A    between atoms: _76  and  _77
REMARK   32  A    between atoms: _76  and  _79
REMARK   33  A    between atoms: _79  and  _80
REMARK   34  A    between atoms: _80  and  _81
REMARK   35  A    between atoms: _84  and  _86
REMARK   36  A    between atoms: _86  and  _87
REMARK   37  A    between atoms: _89  and  _91
REMARK   38  A    between atoms: _91  and  _92
REMARK   39  A    between atoms: _91  and  _94
REMARK   40  A    between atoms: _94  and  _95
REMARK   41  A    between atoms: _100  and  _102
REMARK   42  A    between atoms: _102  and  _103
REMARK   43  A    between atoms: _102  and  _105
REMARK   44  A    between atoms: _105  and  _106
REMARK   45  A    between atoms: _109  and  _111
REMARK   46  A    between atoms: _111  and  _112
REMARK   47  A    between atoms: _115  and  _117
REMARK   48  A    between atoms: _117  and  _118
REMARK   49  A    between atoms: _117  and  _120
REMARK   50  A    between atoms: _120  and  _121
REMARK   51  A    between atoms: _124  and  _126
REMARK   52  A    between atoms: _126  and  _127
REMARK   53  A    between atoms: _126  and  _129
REMARK   54  A    between atoms: _132  and  _134
REMARK   55  A    between atoms: _134  and  _135
REMARK   56  A    between atoms: _134  and  _137
REMARK   57  A    between atoms: _140  and  _142
REMARK   58  A    between atoms: _142  and  _143
REMARK   59  A    between atoms: _142  and  _145
REMARK   60  A    between atoms: _145  and  _146
REMARK   61  A    between atoms: _148  and  _150
REMARK   62  A    between atoms: _150  and  _151
REMARK   63  A    between atoms: _150  and  _153
REMARK   64  A    between atoms: _153  and  _154
REMARK   65  A    between atoms: _157  and  _159
REMARK   66  A    between atoms: _159  and  _160
REMARK   67  A    between atoms: _159  and  _162
REMARK   68  A    between atoms: _162  and  _163
REMARK   69  A    between atoms: _169  and  _171
REMARK   70  A    between atoms: _171  and  _172
REMARK   71  A    between atoms: _171  and  _174
REMARK   72  A    between atoms: _177  and  _179
REMARK   73  A    between atoms: _179  and  _180
REMARK   74  A    between atoms: _179  and  _182
REMARK   75  A    between atoms: _182  and  _183
REMARK   76  A    between atoms: _189  and  _190
REMARK   77  A    between atoms: _195  and  _197
REMARK   78  A    between atoms: _197  and  _198
REMARK   79  A    between atoms: _197  and  _200
REMARK   80  A    between atoms: _200  and  _201
REMARK   81  A    between atoms: _201  and  _202
REMARK   82  A    between atoms: _204  and  _206
REMARK   83  A    between atoms: _206  and  _207
REMARK   84  A    between atoms: _206  and  _209
REMARK   85  A    between atoms: _209  and  _210
REMARK   86  A    between atoms: _210  and  _211
REMARK   87  A    between atoms: _216  and  _218
REMARK   88  A    between atoms: _218  and  _219
REMARK   89  A    between atoms: _218  and  _221
REMARK   90  A    between atoms: _221  and  _222
REMARK   91  A    between atoms: _228  and  _230
REMARK   92  A    between atoms: _230  and  _231
REMARK   93  A    between atoms: _230  and  _233
REMARK   94  A    between atoms: _233  and  _234
REMARK   95  A    between atoms: _239  and  _240
REMARK   96  A    between atoms: _242  and  _244
REMARK   97  A    between atoms: _244  and  _245
REMARK   98  A    between atoms: _244  and  _247
REMARK   99  A    between atoms: _247  and  _248
REMARK  100  A    between atoms: _255  and  _256
REMARK  101  A    between atoms: _261  and  _263
REMARK  102  A    between atoms: _263  and  _264
REMARK  103  A    between atoms: _263  and  _266
REMARK  104  A    between atoms: _266  and  _267
REMARK  105  A    between atoms: _267  and  _268
REMARK  106  A    between atoms: _270  and  _272
REMARK  107  A    between atoms: _272  and  _273
REMARK  108  A    between atoms: _272  and  _275
REMARK  109  A    between atoms: _275  and  _276
REMARK  110  A    between atoms: _281  and  _282
REMARK  111  A    between atoms: _284  and  _286
REMARK  112  A    between atoms: _286  and  _287
REMARK  113  A    between atoms: _286  and  _289
REMARK  114  A    between atoms: _289  and  _290
REMARK  115  A    between atoms: _295  and  _297
REMARK  116  A    between atoms: _297  and  _298
REMARK  117  A    between atoms: _297  and  _300
REMARK  118  A    between atoms: _300  and  _301
REMARK  119  A    between atoms: _307  and  _309
REMARK  120  A    between atoms: _309  and  _310
REMARK  121  A    between atoms: _312  and  _314
REMARK  122  A    between atoms: _314  and  _315
REMARK  123  A    between atoms: _314  and  _317
REMARK  124  A    between atoms: _320  and  _322
REMARK  125  A    between atoms: _322  and  _323
REMARK  126  A    between atoms: _322  and  _325
REMARK  127  A    between atoms: _325  and  _326
REMARK  128  A    between atoms: _329  and  _331
REMARK  129  A    between atoms: _331  and  _332
REMARK  130  A    between atoms: _331  and  _334
REMARK  131  A    between atoms: _334  and  _335
REMARK  132  A    between atoms: _338  and  _340
REMARK  133  A    between atoms: _340  and  _341
REMARK  134  A    between atoms: _340  and  _343
REMARK  135  A    between atoms: _346  and  _348
REMARK  136  A    between atoms: _348  and  _349
REMARK  137  A    between atoms: _348  and  _351
REMARK  138  A    between atoms: _354  and  _356
REMARK  139  A    between atoms: _356  and  _357
REMARK  140  A    between atoms: _356  and  _359
REMARK  141  A    between atoms: _359  and  _360
REMARK  142  A    between atoms: _363  and  _365
REMARK  143  A    between atoms: _365  and  _366
REMARK  144  A    between atoms: _365  and  _368
REMARK  145  A    between atoms: _368  and  _369
REMARK  146  A    between atoms: _375  and  _377
REMARK  147  A    between atoms: _377  and  _378
REMARK  148  A    between atoms: _377  and  _380
REMARK  149  A    between atoms: _380  and  _381
REMARK  150  A    between atoms: _387  and  _389
REMARK  151  A    between atoms: _389  and  _390
REMARK  152  A    between atoms: _392  and  _394
REMARK  153  A    between atoms: _394  and  _395
REMARK  154  A    between atoms: _394  and  _397
REMARK  155  A    between atoms: _397  and  _398
REMARK  156  A    between atoms: _398  and  _399
REMARK  157  A    between atoms: _402  and  _404
REMARK  158  A    between atoms: _404  and  _405
REMARK  159  A    between atoms: _404  and  _407
REMARK  160  A    between atoms: _407  and  _408
REMARK  161  A    between atoms: _408  and  _409
REMARK  162  A    between atoms: _409  and  _410
REMARK  163  A    between atoms: _410  and  _411
REMARK  164  A    between atoms: _415  and  _417
REMARK  165  A    between atoms: _417  and  _418
REMARK  166  A    between atoms: _417  and  _420
REMARK  167  A    between atoms: _420  and  _421
REMARK  168  A    between atoms: _424  and  _426
REMARK  169  A    between atoms: _426  and  _427
REMARK  170  A    between atoms: _426  and  _429
REMARK  171  A    between atoms: _429  and  _430
REMARK  172  A    between atoms: _435  and  _436
REMARK  173  A    between atoms: _438  and  _440
REMARK  174  A    between atoms: _440  and  _441
REMARK  175  A    between atoms: _440  and  _443
REMARK  176  A    between atoms: _443  and  _444
REMARK  177  A    between atoms: _444  and  _445
REMARK  178  A    between atoms: _450  and  _452
REMARK  179  A    between atoms: _452  and  _453
REMARK  180  A    between atoms: _452  and  _455
REMARK  181  A    between atoms: _455  and  _456
REMARK  182  A    between atoms: _459  and  _461
REMARK  183  A    between atoms: _461  and  _462
REMARK  184  A    between atoms: _461  and  _464
REMARK  185  A    between atoms: _464  and  _465
REMARK  186  A    between atoms: _468  and  _470
REMARK  187  A    between atoms: _470  and  _471
REMARK  188  A    between atoms: _470  and  _473
REMARK  189  A    between atoms: _476  and  _478
REMARK  190  A    between atoms: _478  and  _479
REMARK  191  A    between atoms: _478  and  _481
REMARK  192  A    between atoms: _485  and  _486
REMARK  193  A    between atoms: _491  and  _493
REMARK  194  A    between atoms: _493  and  _494
REMARK  195  A    between atoms: _493  and  _496
REMARK  196  A    between atoms: _496  and  _497
REMARK  197  A    between atoms: _500  and  _502
REMARK  198  A    between atoms: _502  and  _503
REMARK  199  A    between atoms: _502  and  _505
REMARK  200  A    between atoms: _508  and  _510
REMARK  201  A    between atoms: _510  and  _511
REMARK  202  A    between atoms: _510  and  _513
REMARK  203  A    between atoms: _513  and  _514
REMARK  204  A    between atoms: _514  and  _515
REMARK  205  A    between atoms: _515  and  _516
REMARK  206  A    between atoms: _525  and  _527
REMARK  207  A    between atoms: _527  and  _528
REMARK  208  A    between atoms: _527  and  _530
REMARK  209  A    between atoms: _530  and  _531
REMARK  210  A    between atoms: _531  and  _532
REMARK  211  A    between atoms: _535  and  _537
REMARK  212  A    between atoms: _537  and  _538
REMARK  213  A    between atoms: _537  and  _540
REMARK  214  A    between atoms: _540  and  _541
REMARK  215  A    between atoms: _544  and  _546
REMARK  216  A    between atoms: _546  and  _547
REMARK  217  A    between atoms: _550  and  _552
REMARK  218  A    between atoms: _552  and  _553
REMARK  219  A    between atoms: _552  and  _555
REMARK  220  A    between atoms: _555  and  _556
REMARK  221  A    between atoms: _556  and  _557
REMARK  222  A    between atoms: _559  and  _561
REMARK  223  A    between atoms: _561  and  _562
REMARK  224  A    between atoms: _561  and  _564
REMARK  225  A    between atoms: _564  and  _565
REMARK  226  A    between atoms: _567  and  _569
REMARK  227  A    between atoms: _569  and  _570
REMARK  228  A    between atoms: _569  and  _572
REMARK  229  A    between atoms: _572  and  _573
REMARK  230  A    between atoms: _575  and  _577
REMARK  231  A    between atoms: _577  and  _578
REMARK  232  A    between atoms: _577  and  _580
REMARK  233  A    between atoms: _580  and  _581
REMARK  234  A    between atoms: _581  and  _582
REMARK  235  A    between atoms: _582  and  _583
REMARK  236  A    between atoms: _592  and  _594
REMARK  237  A    between atoms: _594  and  _595
REMARK  238  A    between atoms: _594  and  _597
REMARK  239  A    between atoms: _597  and  _598
REMARK  240  A    between atoms: _603  and  _605
REMARK  241  A    between atoms: _605  and  _606
REMARK  242  A    between atoms: _605  and  _608
REMARK  243  A    between atoms: _608  and  _609
REMARK  244  A    between atoms: _612  and  _614
REMARK  245  A    between atoms: _614  and  _615
REMARK  246  A    between atoms: _614  and  _617
REMARK  247  A    between atoms: _617  and  _618
REMARK  248  A    between atoms: _621  and  _623
REMARK  249  A    between atoms: _623  and  _624
REMARK  250  A    between atoms: _623  and  _626
REMARK  251  A    between atoms: _626  and  _627
REMARK                            x       y       z     vdW  Elec       q    Type
REMARK                         _______ _______ _______ _____ _____    ______ ____
ROOT
ATOM      1  O   HOH     1      12.677   3.287  -8.333  0.00  0.00    +0.000 OA
ENDROOT
TORSDOF 0
REMARK  Name = ../refined-set-2016/3iod/3iod_pocket.pdb
REMARK  251 active torsions:
REMARK  status: ('A' for Active; 'I' for Inactive)
REMARK    1  A    between atoms: _1  and  _3
REMARK    2  A    between atoms: _3  and  _4
REMARK    3  A    between atoms: _3  and  _6
REMARK    4  A    between atoms: _6  and  _7
REMARK    5  A    between atoms: _10  and  _12
REMARK    6  A    between atoms: _12  and  _13
REMARK    7  A    between atoms: _12  and  _15
REMARK    8  A    between atoms: _19  and  _20
REMARK    9  A    between atoms: _25  and  _27
REMARK   10  A    between atoms: _27  and  _28
REMARK   11  A    between atoms: _27  and  _30
REMARK   12  A    between atoms: _30  and  _31
REMARK   13  A    between atoms: _34  and  _36
REMARK   14  A    between atoms: _36  and  _37
REMARK   15  A    between atoms: _36  and  _39
REMARK   16  A    between atoms: _39  and  _40
REMARK   17  A    between atoms: _40  and  _41
REMARK   18  A    between atoms: _43  and  _45
REMARK   19  A    between atoms: _45  and  _46
REMARK   20  A    between atoms: _48  and  _50
REMARK   21  A    between atoms: _50  and  _51
REMARK   22  A    between atoms: _54  and  _56
REMARK   23  A    between atoms: _56  and  _57
REMARK   24  A    between atoms: _56  and  _59
REMARK   25  A    between atoms: _59  and  _60
REMARK   26  A    between atoms: _63  and  _65
REMARK   27  A    between atoms: _65  and  _66
REMARK   28  A    between atoms: _65  and  _68
REMARK   29  A    between atoms: _68  and  _69
REMARK   30  A    between atoms: _74  and  _76
REMARK   31  A    between atoms: _76  and  _77
REMARK   32  A    between atoms: _76  and  _79
REMARK   33  A    between atoms: _79  and  _80
REMARK   34  A    between atoms: _80  and  _81
REMARK   35  A    between atoms: _84  and  _86
REMARK   36  A    between atoms: _86  and  _87
REMARK   37  A    between atoms: _89  and  _91
REMARK   38  A    between atoms: _91  and  _92
REMARK   39  A    between atoms: _91  and  _94
REMARK   40  A    between atoms: _94  and  _95
REMARK   41  A    between atoms: _100  and  _102
REMARK   42  A    between atoms: _102  and  _103
REMARK   43  A    between atoms: _102  and  _105
REMARK   44  A    between atoms: _105  and  _106
REMARK   45  A    between atoms: _109  and  _111
REMARK   46  A    between atoms: _111  and  _112
REMARK   47  A    between atoms: _115  and  _117
REMARK   48  A    between atoms: _117  and  _118
REMARK   49  A    between atoms: _117  and  _120
REMARK   50  A    between atoms: _120  and  _121
REMARK   51  A    between atoms: _124  and  _126
REMARK   52  A    between atoms: _126  and  _127
REMARK   53  A    between atoms: _126  and  _129
REMARK   54  A    between atoms: _132  and  _134
REMARK   55  A    between atoms: _134  and  _135
REMARK   56  A    between atoms: _134  and  _137
REMARK   57  A    between atoms: _140  and  _142
REMARK   58  A    between atoms: _142  and  _143
REMARK   59  A    between atoms: _142  and  _145
REMARK   60  A    between atoms: _145  and  _146
REMARK   61  A    between atoms: _148  and  _150
REMARK   62  A    between atoms: _150  and  _151
REMARK   63  A    between atoms: _150  and  _153
REMARK   64  A    between atoms: _153  and  _154
REMARK   65  A    between atoms: _157  and  _159
REMARK   66  A    between atoms: _159  and  _160
REMARK   67  A    between atoms: _159  and  _162
REMARK   68  A    between atoms: _162  and  _163
REMARK   69  A    between atoms: _169  and  _171
REMARK   70  A    between atoms: _171  and  _172
REMARK   71  A    between atoms: _171  and  _174
REMARK   72  A    between atoms: _177  and  _179
REMARK   73  A    between atoms: _179  and  _180
REMARK   74  A    between atoms: _179  and  _182
REMARK   75  A    between atoms: _182  and  _183
REMARK   76  A    between atoms: _189  and  _190
REMARK   77  A    between atoms: _195  and  _197
REMARK   78  A    between atoms: _197  and  _198
REMARK   79  A    between atoms: _197  and  _200
REMARK   80  A    between atoms: _200  and  _201
REMARK   81  A    between atoms: _201  and  _202
REMARK   82  A    between atoms: _204  and  _206
REMARK   83  A    between atoms: _206  and  _207
REMARK   84  A    between atoms: _206  and  _209
REMARK   85  A    between atoms: _209  and  _210
REMARK   86  A    between atoms: _210  and  _211
REMARK   87  A    between atoms: _216  and  _218
REMARK   88  A    between atoms: _218  and  _219
REMARK   89  A    between atoms: _218  and  _221
REMARK   90  A    between atoms: _221  and  _222
REMARK   91  A    between atoms: _228  and  _230
REMARK   92  A    between atoms: _230  and  _231
REMARK   93  A    between atoms: _230  and  _233
REMARK   94  A    between atoms: _233  and  _234
REMARK   95  A    between atoms: _239  and  _240
REMARK   96  A    between atoms: _242  and  _244
REMARK   97  A    between atoms: _244  and  _245
REMARK   98  A    between atoms: _244  and  _247
REMARK   99  A    between atoms: _247  and  _248
REMARK  100  A    between atoms: _255  and  _256
REMARK  101  A    between atoms: _261  and  _263
REMARK  102  A    between atoms: _263  and  _264
REMARK  103  A    between atoms: _263  and  _266
REMARK  104  A    between atoms: _266  and  _267
REMARK  105  A    between atoms: _267  and  _268
REMARK  106  A    between atoms: _270  and  _272
REMARK  107  A    between atoms: _272  and  _273
REMARK  108  A    between atoms: _272  and  _275
REMARK  109  A    between atoms: _275  and  _276
REMARK  110  A    between atoms: _281  and  _282
REMARK  111  A    between atoms: _284  and  _286
REMARK  112  A    between atoms: _286  and  _287
REMARK  113  A    between atoms: _286  and  _289
REMARK  114  A    between atoms: _289  and  _290
REMARK  115  A    between atoms: _295  and  _297
REMARK  116  A    between atoms: _297  and  _298
REMARK  117  A    between atoms: _297  and  _300
REMARK  118  A    between atoms: _300  and  _301
REMARK  119  A    between atoms: _307  and  _309
REMARK  120  A    between atoms: _309  and  _310
REMARK  121  A    between atoms: _312  and  _314
REMARK  122  A    between atoms: _314  and  _315
REMARK  123  A    between atoms: _314  and  _317
REMARK  124  A    between atoms: _320  and  _322
REMARK  125  A    between atoms: _322  and  _323
REMARK  126  A    between atoms: _322  and  _325
REMARK  127  A    between atoms: _325  and  _326
REMARK  128  A    between atoms: _329  and  _331
REMARK  129  A    between atoms: _331  and  _332
REMARK  130  A    between atoms: _331  and  _334
REMARK  131  A    between atoms: _334  and  _335
REMARK  132  A    between atoms: _338  and  _340
REMARK  133  A    between atoms: _340  and  _341
REMARK  134  A    between atoms: _340  and  _343
REMARK  135  A    between atoms: _346  and  _348
REMARK  136  A    between atoms: _348  and  _349
REMARK  137  A    between atoms: _348  and  _351
REMARK  138  A    between atoms: _354  and  _356
REMARK  139  A    between atoms: _356  and  _357
REMARK  140  A    between atoms: _356  and  _359
REMARK  141  A    between atoms: _359  and  _360
REMARK  142  A    between atoms: _363  and  _365
REMARK  143  A    between atoms: _365  and  _366
REMARK  144  A    between atoms: _365  and  _368
REMARK  145  A    between atoms: _368  and  _369
REMARK  146  A    between atoms: _375  and  _377
REMARK  147  A    between atoms: _377  and  _378
REMARK  148  A    between atoms: _377  and  _380
REMARK  149  A    between atoms: _380  and  _381
REMARK  150  A    between atoms: _387  and  _389
REMARK  151  A    between atoms: _389  and  _390
REMARK  152  A    between atoms: _392  and  _394
REMARK  153  A    between atoms: _394  and  _395
REMARK  154  A    between atoms: _394  and  _397
REMARK  155  A    between atoms: _397  and  _398
REMARK  156  A    between atoms: _398  and  _399
REMARK  157  A    between atoms: _402  and  _404
REMARK  158  A    between atoms: _404  and  _405
REMARK  159  A    between atoms: _404  and  _407
REMARK  160  A    between atoms: _407  and  _408
REMARK  161  A    between atoms: _408  and  _409
REMARK  162  A    between atoms: _409  and  _410
REMARK  163  A    between atoms: _410  and  _411
REMARK  164  A    between atoms: _415  and  _417
REMARK  165  A    between atoms: _417  and  _418
REMARK  166  A    between atoms: _417  and  _420
REMARK  167  A    between atoms: _420  and  _421
REMARK  168  A    between atoms: _424  and  _426
REMARK  169  A    between atoms: _426  and  _427
REMARK  170  A    between atoms: _426  and  _429
REMARK  171  A    between atoms: _429  and  _430
REMARK  172  A    between atoms: _435  and  _436
REMARK  173  A    between atoms: _438  and  _440
REMARK  174  A    between atoms: _440  and  _441
REMARK  175  A    between atoms: _440  and  _443
REMARK  176  A    between atoms: _443  and  _444
REMARK  177  A    between atoms: _444  and  _445
REMARK  178  A    between atoms: _450  and  _452
REMARK  179  A    between atoms: _452  and  _453
REMARK  180  A    between atoms: _452  and  _455
REMARK  181  A    between atoms: _455  and  _456
REMARK  182  A    between atoms: _459  and  _461
REMARK  183  A    between atoms: _461  and  _462
REMARK  184  A    between atoms: _461  and  _464
REMARK  185  A    between atoms: _464  and  _465
REMARK  186  A    between atoms: _468  and  _470
REMARK  187  A    between atoms: _470  and  _471
REMARK  188  A    between atoms: _470  and  _473
REMARK  189  A    between atoms: _476  and  _478
REMARK  190  A    between atoms: _478  and  _479
REMARK  191  A    between atoms: _478  and  _481
REMARK  192  A    between atoms: _485  and  _486
REMARK  193  A    between atoms: _491  and  _493
REMARK  194  A    between atoms: _493  and  _494
REMARK  195  A    between atoms: _493  and  _496
REMARK  196  A    between atoms: _496  and  _497
REMARK  197  A    between atoms: _500  and  _502
REMARK  198  A    between atoms: _502  and  _503
REMARK  199  A    between atoms: _502  and  _505
REMARK  200  A    between atoms: _508  and  _510
REMARK  201  A    between atoms: _510  and  _511
REMARK  202  A    between atoms: _510  and  _513
REMARK  203  A    between atoms: _513  and  _514
REMARK  204  A    between atoms: _514  and  _515
REMARK  205  A    between atoms: _515  and  _516
REMARK  206  A    between atoms: _525  and  _527
REMARK  207  A    between atoms: _527  and  _528
REMARK  208  A    between atoms: _527  and  _530
REMARK  209  A    between atoms: _530  and  _531
REMARK  210  A    between atoms: _531  and  _532
REMARK  211  A    between atoms: _535  and  _537
REMARK  212  A    between atoms: _537  and  _538
REMARK  213  A    between atoms: _537  and  _540
REMARK  214  A    between atoms: _540  and  _541
REMARK  215  A    between atoms: _544  and  _546
REMARK  216  A    between atoms: _546  and  _547
REMARK  217  A    between atoms: _550  and  _552
REMARK  218  A    between atoms: _552  and  _553
REMARK  219  A    between atoms: _552  and  _555
REMARK  220  A    between atoms: _555  and  _556
REMARK  221  A    between atoms: _556  and  _557
REMARK  222  A    between atoms: _559  and  _561
REMARK  223  A    between atoms: _561  and  _562
REMARK  224  A    between atoms: _561  and  _564
REMARK  225  A    between atoms: _564  and  _565
REMARK  226  A    between atoms: _567  and  _569
REMARK  227  A    between atoms: _569  and  _570
REMARK  228  A    between atoms: _569  and  _572
REMARK  229  A    between atoms: _572  and  _573
REMARK  230  A    between atoms: _575  and  _577
REMARK  231  A    between atoms: _577  and  _578
REMARK  232  A    between atoms: _577  and  _580
REMARK  233  A    between atoms: _580  and  _581
REMARK  234  A    between atoms: _581  and  _582
REMARK  235  A    between atoms: _582  and  _583
REMARK  236  A    between atoms: _592  and  _594
REMARK  237  A    between atoms: _594  and  _595
REMARK  238  A    between atoms: _594  and  _597
REMARK  239  A    between atoms: _597  and  _598
REMARK  240  A    between atoms: _603  and  _605
REMARK  241  A    between atoms: _605  and  _606
REMARK  242  A    between atoms: _605  and  _608
REMARK  243  A    between atoms: _608  and  _609
REMARK  244  A    between atoms: _612  and  _614
REMARK  245  A    between atoms: _614  and  _615
REMARK  246  A    between atoms: _614  and  _617
REMARK  247  A    between atoms: _617  and  _618
REMARK  248  A    between atoms: _621  and  _623
REMARK  249  A    between atoms: _623  and  _624
REMARK  250  A    between atoms: _623  and  _626
REMARK  251  A    between atoms: _626  and  _627
REMARK                            x       y       z     vdW  Elec       q    Type
REMARK                         _______ _______ _______ _____ _____    ______ ____
ROOT
ATOM      1  O   HOH     1      18.637   1.883   1.976  0.00  0.00    +0.000 OA
ENDROOT
TORSDOF 0
REMARK  Name = ../refined-set-2016/3iod/3iod_pocket.pdb
REMARK  251 active torsions:
REMARK  status: ('A' for Active; 'I' for Inactive)
REMARK    1  A    between atoms: _1  and  _3
REMARK    2  A    between atoms: _3  and  _4
REMARK    3  A    between atoms: _3  and  _6
REMARK    4  A    between atoms: _6  and  _7
REMARK    5  A    between atoms: _10  and  _12
REMARK    6  A    between atoms: _12  and  _13
REMARK    7  A    between atoms: _12  and  _15
REMARK    8  A    between atoms: _19  and  _20
REMARK    9  A    between atoms: _25  and  _27
REMARK   10  A    between atoms: _27  and  _28
REMARK   11  A    between atoms: _27  and  _30
REMARK   12  A    between atoms: _30  and  _31
REMARK   13  A    between atoms: _34  and  _36
REMARK   14  A    between atoms: _36  and  _37
REMARK   15  A    between atoms: _36  and  _39
REMARK   16  A    between atoms: _39  and  _40
REMARK   17  A    between atoms: _40  and  _41
REMARK   18  A    between atoms: _43  and  _45
REMARK   19  A    between atoms: _45  and  _46
REMARK   20  A    between atoms: _48  and  _50
REMARK   21  A    between atoms: _50  and  _51
REMARK   22  A    between atoms: _54  and  _56
REMARK   23  A    between atoms: _56  and  _57
REMARK   24  A    between atoms: _56  and  _59
REMARK   25  A    between atoms: _59  and  _60
REMARK   26  A    between atoms: _63  and  _65
REMARK   27  A    between atoms: _65  and  _66
REMARK   28  A    between atoms: _65  and  _68
REMARK   29  A    between atoms: _68  and  _69
REMARK   30  A    between atoms: _74  and  _76
REMARK   31  A    between atoms: _76  and  _77
REMARK   32  A    between atoms: _76  and  _79
REMARK   33  A    between atoms: _79  and  _80
REMARK   34  A    between atoms: _80  and  _81
REMARK   35  A    between atoms: _84  and  _86
REMARK   36  A    between atoms: _86  and  _87
REMARK   37  A    between atoms: _89  and  _91
REMARK   38  A    between atoms: _91  and  _92
REMARK   39  A    between atoms: _91  and  _94
REMARK   40  A    between atoms: _94  and  _95
REMARK   41  A    between atoms: _100  and  _102
REMARK   42  A    between atoms: _102  and  _103
REMARK   43  A    between atoms: _102  and  _105
REMARK   44  A    between atoms: _105  and  _106
REMARK   45  A    between atoms: _109  and  _111
REMARK   46  A    between atoms: _111  and  _112
REMARK   47  A    between atoms: _115  and  _117
REMARK   48  A    between atoms: _117  and  _118
REMARK   49  A    between atoms: _117  and  _120
REMARK   50  A    between atoms: _120  and  _121
REMARK   51  A    between atoms: _124  and  _126
REMARK   52  A    between atoms: _126  and  _127
REMARK   53  A    between atoms: _126  and  _129
REMARK   54  A    between atoms: _132  and  _134
REMARK   55  A    between atoms: _134  and  _135
REMARK   56  A    between atoms: _134  and  _137
REMARK   57  A    between atoms: _140  and  _142
REMARK   58  A    between atoms: _142  and  _143
REMARK   59  A    between atoms: _142  and  _145
REMARK   60  A    between atoms: _145  and  _146
REMARK   61  A    between atoms: _148  and  _150
REMARK   62  A    between atoms: _150  and  _151
REMARK   63  A    between atoms: _150  and  _153
REMARK   64  A    between atoms: _153  and  _154
REMARK   65  A    between atoms: _157  and  _159
REMARK   66  A    between atoms: _159  and  _160
REMARK   67  A    between atoms: _159  and  _162
REMARK   68  A    between atoms: _162  and  _163
REMARK   69  A    between atoms: _169  and  _171
REMARK   70  A    between atoms: _171  and  _172
REMARK   71  A    between atoms: _171  and  _174
REMARK   72  A    between atoms: _177  and  _179
REMARK   73  A    between atoms: _179  and  _180
REMARK   74  A    between atoms: _179  and  _182
REMARK   75  A    between atoms: _182  and  _183
REMARK   76  A    between atoms: _189  and  _190
REMARK   77  A    between atoms: _195  and  _197
REMARK   78  A    between atoms: _197  and  _198
REMARK   79  A    between atoms: _197  and  _200
REMARK   80  A    between atoms: _200  and  _201
REMARK   81  A    between atoms: _201  and  _202
REMARK   82  A    between atoms: _204  and  _206
REMARK   83  A    between atoms: _206  and  _207
REMARK   84  A    between atoms: _206  and  _209
REMARK   85  A    between atoms: _209  and  _210
REMARK   86  A    between atoms: _210  and  _211
REMARK   87  A    between atoms: _216  and  _218
REMARK   88  A    between atoms: _218  and  _219
REMARK   89  A    between atoms: _218  and  _221
REMARK   90  A    between atoms: _221  and  _222
REMARK   91  A    between atoms: _228  and  _230
REMARK   92  A    between atoms: _230  and  _231
REMARK   93  A    between atoms: _230  and  _233
REMARK   94  A    between atoms: _233  and  _234
REMARK   95  A    between atoms: _239  and  _240
REMARK   96  A    between atoms: _242  and  _244
REMARK   97  A    between atoms: _244  and  _245
REMARK   98  A    between atoms: _244  and  _247
REMARK   99  A    between atoms: _247  and  _248
REMARK  100  A    between atoms: _255  and  _256
REMARK  101  A    between atoms: _261  and  _263
REMARK  102  A    between atoms: _263  and  _264
REMARK  103  A    between atoms: _263  and  _266
REMARK  104  A    between atoms: _266  and  _267
REMARK  105  A    between atoms: _267  and  _268
REMARK  106  A    between atoms: _270  and  _272
REMARK  107  A    between atoms: _272  and  _273
REMARK  108  A    between atoms: _272  and  _275
REMARK  109  A    between atoms: _275  and  _276
REMARK  110  A    between atoms: _281  and  _282
REMARK  111  A    between atoms: _284  and  _286
REMARK  112  A    between atoms: _286  and  _287
REMARK  113  A    between atoms: _286  and  _289
REMARK  114  A    between atoms: _289  and  _290
REMARK  115  A    between atoms: _295  and  _297
REMARK  116  A    between atoms: _297  and  _298
REMARK  117  A    between atoms: _297  and  _300
REMARK  118  A    between atoms: _300  and  _301
REMARK  119  A    between atoms: _307  and  _309
REMARK  120  A    between atoms: _309  and  _310
REMARK  121  A    between atoms: _312  and  _314
REMARK  122  A    between atoms: _314  and  _315
REMARK  123  A    between atoms: _314  and  _317
REMARK  124  A    between atoms: _320  and  _322
REMARK  125  A    between atoms: _322  and  _323
REMARK  126  A    between atoms: _322  and  _325
REMARK  127  A    between atoms: _325  and  _326
REMARK  128  A    between atoms: _329  and  _331
REMARK  129  A    between atoms: _331  and  _332
REMARK  130  A    between atoms: _331  and  _334
REMARK  131  A    between atoms: _334  and  _335
REMARK  132  A    between atoms: _338  and  _340
REMARK  133  A    between atoms: _340  and  _341
REMARK  134  A    between atoms: _340  and  _343
REMARK  135  A    between atoms: _346  and  _348
REMARK  136  A    between atoms: _348  and  _349
REMARK  137  A    between atoms: _348  and  _351
REMARK  138  A    between atoms: _354  and  _356
REMARK  139  A    between atoms: _356  and  _357
REMARK  140  A    between atoms: _356  and  _359
REMARK  141  A    between atoms: _359  and  _360
REMARK  142  A    between atoms: _363  and  _365
REMARK  143  A    between atoms: _365  and  _366
REMARK  144  A    between atoms: _365  and  _368
REMARK  145  A    between atoms: _368  and  _369
REMARK  146  A    between atoms: _375  and  _377
REMARK  147  A    between atoms: _377  and  _378
REMARK  148  A    between atoms: _377  and  _380
REMARK  149  A    between atoms: _380  and  _381
REMARK  150  A    between atoms: _387  and  _389
REMARK  151  A    between atoms: _389  and  _390
REMARK  152  A    between atoms: _392  and  _394
REMARK  153  A    between atoms: _394  and  _395
REMARK  154  A    between atoms: _394  and  _397
REMARK  155  A    between atoms: _397  and  _398
REMARK  156  A    between atoms: _398  and  _399
REMARK  157  A    between atoms: _402  and  _404
REMARK  158  A    between atoms: _404  and  _405
REMARK  159  A    between atoms: _404  and  _407
REMARK  160  A    between atoms: _407  and  _408
REMARK  161  A    between atoms: _408  and  _409
REMARK  162  A    between atoms: _409  and  _410
REMARK  163  A    between atoms: _410  and  _411
REMARK  164  A    between atoms: _415  and  _417
REMARK  165  A    between atoms: _417  and  _418
REMARK  166  A    between atoms: _417  and  _420
REMARK  167  A    between atoms: _420  and  _421
REMARK  168  A    between atoms: _424  and  _426
REMARK  169  A    between atoms: _426  and  _427
REMARK  170  A    between atoms: _426  and  _429
REMARK  171  A    between atoms: _429  and  _430
REMARK  172  A    between atoms: _435  and  _436
REMARK  173  A    between atoms: _438  and  _440
REMARK  174  A    between atoms: _440  and  _441
REMARK  175  A    between atoms: _440  and  _443
REMARK  176  A    between atoms: _443  and  _444
REMARK  177  A    between atoms: _444  and  _445
REMARK  178  A    between atoms: _450  and  _452
REMARK  179  A    between atoms: _452  and  _453
REMARK  180  A    between atoms: _452  and  _455
REMARK  181  A    between atoms: _455  and  _456
REMARK  182  A    between atoms: _459  and  _461
REMARK  183  A    between atoms: _461  and  _462
REMARK  184  A    between atoms: _461  and  _464
REMARK  185  A    between atoms: _464  and  _465
REMARK  186  A    between atoms: _468  and  _470
REMARK  187  A    between atoms: _470  and  _471
REMARK  188  A    between atoms: _470  and  _473
REMARK  189  A    between atoms: _476  and  _478
REMARK  190  A    between atoms: _478  and  _479
REMARK  191  A    between atoms: _478  and  _481
REMARK  192  A    between atoms: _485  and  _486
REMARK  193  A    between atoms: _491  and  _493
REMARK  194  A    between atoms: _493  and  _494
REMARK  195  A    between atoms: _493  and  _496
REMARK  196  A    between atoms: _496  and  _497
REMARK  197  A    between atoms: _500  and  _502
REMARK  198  A    between atoms: _502  and  _503
REMARK  199  A    between atoms: _502  and  _505
REMARK  200  A    between atoms: _508  and  _510
REMARK  201  A    between atoms: _510  and  _511
REMARK  202  A    between atoms: _510  and  _513
REMARK  203  A    between atoms: _513  and  _514
REMARK  204  A    between atoms: _514  and  _515
REMARK  205  A    between atoms: _515  and  _516
REMARK  206  A    between atoms: _525  and  _527
REMARK  207  A    between atoms: _527  and  _528
REMARK  208  A    between atoms: _527  and  _530
REMARK  209  A    between atoms: _530  and  _531
REMARK  210  A    between atoms: _531  and  _532
REMARK  211  A    between atoms: _535  and  _537
REMARK  212  A    between atoms: _537  and  _538
REMARK  213  A    between atoms: _537  and  _540
REMARK  214  A    between atoms: _540  and  _541
REMARK  215  A    between atoms: _544  and  _546
REMARK  216  A    between atoms: _546  and  _547
REMARK  217  A    between atoms: _550  and  _552
REMARK  218  A    between atoms: _552  and  _553
REMARK  219  A    between atoms: _552  and  _555
REMARK  220  A    between atoms: _555  and  _556
REMARK  221  A    between atoms: _556  and  _557
REMARK  222  A    between atoms: _559  and  _561
REMARK  223  A    between atoms: _561  and  _562
REMARK  224  A    between atoms: _561  and  _564
REMARK  225  A    between atoms: _564  and  _565
REMARK  226  A    between atoms: _567  and  _569
REMARK  227  A    between atoms: _569  and  _570
REMARK  228  A    between atoms: _569  and  _572
REMARK  229  A    between atoms: _572  and  _573
REMARK  230  A    between atoms: _575  and  _577
REMARK  231  A    between atoms: _577  and  _578
REMARK  232  A    between atoms: _577  and  _580
REMARK  233  A    between atoms: _580  and  _581
REMARK  234  A    between atoms: _581  and  _582
REMARK  235  A    between atoms: _582  and  _583
REMARK  236  A    between atoms: _592  and  _594
REMARK  237  A    between atoms: _594  and  _595
REMARK  238  A    between atoms: _594  and  _597
REMARK  239  A    between atoms: _597  and  _598
REMARK  240  A    between atoms: _603  and  _605
REMARK  241  A    between atoms: _605  and  _606
REMARK  242  A    between atoms: _605  and  _608
REMARK  243  A    between atoms: _608  and  _609
REMARK  244  A    between atoms: _612  and  _614
REMARK  245  A    between atoms: _614  and  _615
REMARK  246  A    between atoms: _614  and  _617
REMARK  247  A    between atoms: _617  and  _618
REMARK  248  A    between atoms: _621  and  _623
REMARK  249  A    between atoms: _623  and  _624
REMARK  250  A    between atoms: _623  and  _626
REMARK  251  A    between atoms: _626  and  _627
REMARK                            x       y       z     vdW  Elec       q    Type
REMARK                         _______ _______ _______ _____ _____    ______ ____
ROOT
ATOM      1  O   HOH     1      13.473   4.457   1.776  0.00  0.00    +0.000 OA
ENDROOT
TORSDOF 0
REMARK  Name = ../refined-set-2016/3iod/3iod_pocket.pdb
REMARK  251 active torsions:
REMARK  status: ('A' for Active; 'I' for Inactive)
REMARK    1  A    between atoms: _1  and  _3
REMARK    2  A    between atoms: _3  and  _4
REMARK    3  A    between atoms: _3  and  _6
REMARK    4  A    between atoms: _6  and  _7
REMARK    5  A    between atoms: _10  and  _12
REMARK    6  A    between atoms: _12  and  _13
REMARK    7  A    between atoms: _12  and  _15
REMARK    8  A    between atoms: _19  and  _20
REMARK    9  A    between atoms: _25  and  _27
REMARK   10  A    between atoms: _27  and  _28
REMARK   11  A    between atoms: _27  and  _30
REMARK   12  A    between atoms: _30  and  _31
REMARK   13  A    between atoms: _34  and  _36
REMARK   14  A    between atoms: _36  and  _37
REMARK   15  A    between atoms: _36  and  _39
REMARK   16  A    between atoms: _39  and  _40
REMARK   17  A    between atoms: _40  and  _41
REMARK   18  A    between atoms: _43  and  _45
REMARK   19  A    between atoms: _45  and  _46
REMARK   20  A    between atoms: _48  and  _50
REMARK   21  A    between atoms: _50  and  _51
REMARK   22  A    between atoms: _54  and  _56
REMARK   23  A    between atoms: _56  and  _57
REMARK   24  A    between atoms: _56  and  _59
REMARK   25  A    between atoms: _59  and  _60
REMARK   26  A    between atoms: _63  and  _65
REMARK   27  A    between atoms: _65  and  _66
REMARK   28  A    between atoms: _65  and  _68
REMARK   29  A    between atoms: _68  and  _69
REMARK   30  A    between atoms: _74  and  _76
REMARK   31  A    between atoms: _76  and  _77
REMARK   32  A    between atoms: _76  and  _79
REMARK   33  A    between atoms: _79  and  _80
REMARK   34  A    between atoms: _80  and  _81
REMARK   35  A    between atoms: _84  and  _86
REMARK   36  A    between atoms: _86  and  _87
REMARK   37  A    between atoms: _89  and  _91
REMARK   38  A    between atoms: _91  and  _92
REMARK   39  A    between atoms: _91  and  _94
REMARK   40  A    between atoms: _94  and  _95
REMARK   41  A    between atoms: _100  and  _102
REMARK   42  A    between atoms: _102  and  _103
REMARK   43  A    between atoms: _102  and  _105
REMARK   44  A    between atoms: _105  and  _106
REMARK   45  A    between atoms: _109  and  _111
REMARK   46  A    between atoms: _111  and  _112
REMARK   47  A    between atoms: _115  and  _117
REMARK   48  A    between atoms: _117  and  _118
REMARK   49  A    between atoms: _117  and  _120
REMARK   50  A    between atoms: _120  and  _121
REMARK   51  A    between atoms: _124  and  _126
REMARK   52  A    between atoms: _126  and  _127
REMARK   53  A    between atoms: _126  and  _129
REMARK   54  A    between atoms: _132  and  _134
REMARK   55  A    between atoms: _134  and  _135
REMARK   56  A    between atoms: _134  and  _137
REMARK   57  A    between atoms: _140  and  _142
REMARK   58  A    between atoms: _142  and  _143
REMARK   59  A    between atoms: _142  and  _145
REMARK   60  A    between atoms: _145  and  _146
REMARK   61  A    between atoms: _148  and  _150
REMARK   62  A    between atoms: _150  and  _151
REMARK   63  A    between atoms: _150  and  _153
REMARK   64  A    between atoms: _153  and  _154
REMARK   65  A    between atoms: _157  and  _159
REMARK   66  A    between atoms: _159  and  _160
REMARK   67  A    between atoms: _159  and  _162
REMARK   68  A    between atoms: _162  and  _163
REMARK   69  A    between atoms: _169  and  _171
REMARK   70  A    between atoms: _171  and  _172
REMARK   71  A    between atoms: _171  and  _174
REMARK   72  A    between atoms: _177  and  _179
REMARK   73  A    between atoms: _179  and  _180
REMARK   74  A    between atoms: _179  and  _182
REMARK   75  A    between atoms: _182  and  _183
REMARK   76  A    between atoms: _189  and  _190
REMARK   77  A    between atoms: _195  and  _197
REMARK   78  A    between atoms: _197  and  _198
REMARK   79  A    between atoms: _197  and  _200
REMARK   80  A    between atoms: _200  and  _201
REMARK   81  A    between atoms: _201  and  _202
REMARK   82  A    between atoms: _204  and  _206
REMARK   83  A    between atoms: _206  and  _207
REMARK   84  A    between atoms: _206  and  _209
REMARK   85  A    between atoms: _209  and  _210
REMARK   86  A    between atoms: _210  and  _211
REMARK   87  A    between atoms: _216  and  _218
REMARK   88  A    between atoms: _218  and  _219
REMARK   89  A    between atoms: _218  and  _221
REMARK   90  A    between atoms: _221  and  _222
REMARK   91  A    between atoms: _228  and  _230
REMARK   92  A    between atoms: _230  and  _231
REMARK   93  A    between atoms: _230  and  _233
REMARK   94  A    between atoms: _233  and  _234
REMARK   95  A    between atoms: _239  and  _240
REMARK   96  A    between atoms: _242  and  _244
REMARK   97  A    between atoms: _244  and  _245
REMARK   98  A    between atoms: _244  and  _247
REMARK   99  A    between atoms: _247  and  _248
REMARK  100  A    between atoms: _255  and  _256
REMARK  101  A    between atoms: _261  and  _263
REMARK  102  A    between atoms: _263  and  _264
REMARK  103  A    between atoms: _263  and  _266
REMARK  104  A    between atoms: _266  and  _267
REMARK  105  A    between atoms: _267  and  _268
REMARK  106  A    between atoms: _270  and  _272
REMARK  107  A    between atoms: _272  and  _273
REMARK  108  A    between atoms: _272  and  _275
REMARK  109  A    between atoms: _275  and  _276
REMARK  110  A    between atoms: _281  and  _282
REMARK  111  A    between atoms: _284  and  _286
REMARK  112  A    between atoms: _286  and  _287
REMARK  113  A    between atoms: _286  and  _289
REMARK  114  A    between atoms: _289  and  _290
REMARK  115  A    between atoms: _295  and  _297
REMARK  116  A    between atoms: _297  and  _298
REMARK  117  A    between atoms: _297  and  _300
REMARK  118  A    between atoms: _300  and  _301
REMARK  119  A    between atoms: _307  and  _309
REMARK  120  A    between atoms: _309  and  _310
REMARK  121  A    between atoms: _312  and  _314
REMARK  122  A    between atoms: _314  and  _315
REMARK  123  A    between atoms: _314  and  _317
REMARK  124  A    between atoms: _320  and  _322
REMARK  125  A    between atoms: _322  and  _323
REMARK  126  A    between atoms: _322  and  _325
REMARK  127  A    between atoms: _325  and  _326
REMARK  128  A    between atoms: _329  and  _331
REMARK  129  A    between atoms: _331  and  _332
REMARK  130  A    between atoms: _331  and  _334
REMARK  131  A    between atoms: _334  and  _335
REMARK  132  A    between atoms: _338  and  _340
REMARK  133  A    between atoms: _340  and  _341
REMARK  134  A    between atoms: _340  and  _343
REMARK  135  A    between atoms: _346  and  _348
REMARK  136  A    between atoms: _348  and  _349
REMARK  137  A    between atoms: _348  and  _351
REMARK  138  A    between atoms: _354  and  _356
REMARK  139  A    between atoms: _356  and  _357
REMARK  140  A    between atoms: _356  and  _359
REMARK  141  A    between atoms: _359  and  _360
REMARK  142  A    between atoms: _363  and  _365
REMARK  143  A    between atoms: _365  and  _366
REMARK  144  A    between atoms: _365  and  _368
REMARK  145  A    between atoms: _368  and  _369
REMARK  146  A    between atoms: _375  and  _377
REMARK  147  A    between atoms: _377  and  _378
REMARK  148  A    between atoms: _377  and  _380
REMARK  149  A    between atoms: _380  and  _381
REMARK  150  A    between atoms: _387  and  _389
REMARK  151  A    between atoms: _389  and  _390
REMARK  152  A    between atoms: _392  and  _394
REMARK  153  A    between atoms: _394  and  _395
REMARK  154  A    between atoms: _394  and  _397
REMARK  155  A    between atoms: _397  and  _398
REMARK  156  A    between atoms: _398  and  _399
REMARK  157  A    between atoms: _402  and  _404
REMARK  158  A    between atoms: _404  and  _405
REMARK  159  A    between atoms: _404  and  _407
REMARK  160  A    between atoms: _407  and  _408
REMARK  161  A    between atoms: _408  and  _409
REMARK  162  A    between atoms: _409  and  _410
REMARK  163  A    between atoms: _410  and  _411
REMARK  164  A    between atoms: _415  and  _417
REMARK  165  A    between atoms: _417  and  _418
REMARK  166  A    between atoms: _417  and  _420
REMARK  167  A    between atoms: _420  and  _421
REMARK  168  A    between atoms: _424  and  _426
REMARK  169  A    between atoms: _426  and  _427
REMARK  170  A    between atoms: _426  and  _429
REMARK  171  A    between atoms: _429  and  _430
REMARK  172  A    between atoms: _435  and  _436
REMARK  173  A    between atoms: _438  and  _440
REMARK  174  A    between atoms: _440  and  _441
REMARK  175  A    between atoms: _440  and  _443
REMARK  176  A    between atoms: _443  and  _444
REMARK  177  A    between atoms: _444  and  _445
REMARK  178  A    between atoms: _450  and  _452
REMARK  179  A    between atoms: _452  and  _453
REMARK  180  A    between atoms: _452  and  _455
REMARK  181  A    between atoms: _455  and  _456
REMARK  182  A    between atoms: _459  and  _461
REMARK  183  A    between atoms: _461  and  _462
REMARK  184  A    between atoms: _461  and  _464
REMARK  185  A    between atoms: _464  and  _465
REMARK  186  A    between atoms: _468  and  _470
REMARK  187  A    between atoms: _470  and  _471
REMARK  188  A    between atoms: _470  and  _473
REMARK  189  A    between atoms: _476  and  _478
REMARK  190  A    between atoms: _478  and  _479
REMARK  191  A    between atoms: _478  and  _481
REMARK  192  A    between atoms: _485  and  _486
REMARK  193  A    between atoms: _491  and  _493
REMARK  194  A    between atoms: _493  and  _494
REMARK  195  A    between atoms: _493  and  _496
REMARK  196  A    between atoms: _496  and  _497
REMARK  197  A    between atoms: _500  and  _502
REMARK  198  A    between atoms: _502  and  _503
REMARK  199  A    between atoms: _502  and  _505
REMARK  200  A    between atoms: _508  and  _510
REMARK  201  A    between atoms: _510  and  _511
REMARK  202  A    between atoms: _510  and  _513
REMARK  203  A    between atoms: _513  and  _514
REMARK  204  A    between atoms: _514  and  _515
REMARK  205  A    between atoms: _515  and  _516
REMARK  206  A    between atoms: _525  and  _527
REMARK  207  A    between atoms: _527  and  _528
REMARK  208  A    between atoms: _527  and  _530
REMARK  209  A    between atoms: _530  and  _531
REMARK  210  A    between atoms: _531  and  _532
REMARK  211  A    between atoms: _535  and  _537
REMARK  212  A    between atoms: _537  and  _538
REMARK  213  A    between atoms: _537  and  _540
REMARK  214  A    between atoms: _540  and  _541
REMARK  215  A    between atoms: _544  and  _546
REMARK  216  A    between atoms: _546  and  _547
REMARK  217  A    between atoms: _550  and  _552
REMARK  218  A    between atoms: _552  and  _553
REMARK  219  A    between atoms: _552  and  _555
REMARK  220  A    between atoms: _555  and  _556
REMARK  221  A    between atoms: _556  and  _557
REMARK  222  A    between atoms: _559  and  _561
REMARK  223  A    between atoms: _561  and  _562
REMARK  224  A    between atoms: _561  and  _564
REMARK  225  A    between atoms: _564  and  _565
REMARK  226  A    between atoms: _567  and  _569
REMARK  227  A    between atoms: _569  and  _570
REMARK  228  A    between atoms: _569  and  _572
REMARK  229  A    between atoms: _572  and  _573
REMARK  230  A    between atoms: _575  and  _577
REMARK  231  A    between atoms: _577  and  _578
REMARK  232  A    between atoms: _577  and  _580
REMARK  233  A    between atoms: _580  and  _581
REMARK  234  A    between atoms: _581  and  _582
REMARK  235  A    between atoms: _582  and  _583
REMARK  236  A    between atoms: _592  and  _594
REMARK  237  A    between atoms: _594  and  _595
REMARK  238  A    between atoms: _594  and  _597
REMARK  239  A    between atoms: _597  and  _598
REMARK  240  A    between atoms: _603  and  _605
REMARK  241  A    between atoms: _605  and  _606
REMARK  242  A    between atoms: _605  and  _608
REMARK  243  A    between atoms: _608  and  _609
REMARK  244  A    between atoms: _612  and  _614
REMARK  245  A    between atoms: _614  and  _615
REMARK  246  A    between atoms: _614  and  _617
REMARK  247  A    between atoms: _617  and  _618
REMARK  248  A    between atoms: _621  and  _623
REMARK  249  A    between atoms: _623  and  _624
REMARK  250  A    between atoms: _623  and  _626
REMARK  251  A    between atoms: _626  and  _627
REMARK                            x       y       z     vdW  Elec       q    Type
REMARK                         _______ _______ _______ _____ _____    ______ ____
ROOT
ATOM      1  O   HOH     1      16.896  18.271  12.650  0.00  0.00    +0.000 OA
ENDROOT
TORSDOF 0
REMARK  Name = ../refined-set-2016/3iod/3iod_pocket.pdb
REMARK  251 active torsions:
REMARK  status: ('A' for Active; 'I' for Inactive)
REMARK    1  A    between atoms: _1  and  _3
REMARK    2  A    between atoms: _3  and  _4
REMARK    3  A    between atoms: _3  and  _6
REMARK    4  A    between atoms: _6  and  _7
REMARK    5  A    between atoms: _10  and  _12
REMARK    6  A    between atoms: _12  and  _13
REMARK    7  A    between atoms: _12  and  _15
REMARK    8  A    between atoms: _19  and  _20
REMARK    9  A    between atoms: _25  and  _27
REMARK   10  A    between atoms: _27  and  _28
REMARK   11  A    between atoms: _27  and  _30
REMARK   12  A    between atoms: _30  and  _31
REMARK   13  A    between atoms: _34  and  _36
REMARK   14  A    between atoms: _36  and  _37
REMARK   15  A    between atoms: _36  and  _39
REMARK   16  A    between atoms: _39  and  _40
REMARK   17  A    between atoms: _40  and  _41
REMARK   18  A    between atoms: _43  and  _45
REMARK   19  A    between atoms: _45  and  _46
REMARK   20  A    between atoms: _48  and  _50
REMARK   21  A    between atoms: _50  and  _51
REMARK   22  A    between atoms: _54  and  _56
REMARK   23  A    between atoms: _56  and  _57
REMARK   24  A    between atoms: _56  and  _59
REMARK   25  A    between atoms: _59  and  _60
REMARK   26  A    between atoms: _63  and  _65
REMARK   27  A    between atoms: _65  and  _66
REMARK   28  A    between atoms: _65  and  _68
REMARK   29  A    between atoms: _68  and  _69
REMARK   30  A    between atoms: _74  and  _76
REMARK   31  A    between atoms: _76  and  _77
REMARK   32  A    between atoms: _76  and  _79
REMARK   33  A    between atoms: _79  and  _80
REMARK   34  A    between atoms: _80  and  _81
REMARK   35  A    between atoms: _84  and  _86
REMARK   36  A    between atoms: _86  and  _87
REMARK   37  A    between atoms: _89  and  _91
REMARK   38  A    between atoms: _91  and  _92
REMARK   39  A    between atoms: _91  and  _94
REMARK   40  A    between atoms: _94  and  _95
REMARK   41  A    between atoms: _100  and  _102
REMARK   42  A    between atoms: _102  and  _103
REMARK   43  A    between atoms: _102  and  _105
REMARK   44  A    between atoms: _105  and  _106
REMARK   45  A    between atoms: _109  and  _111
REMARK   46  A    between atoms: _111  and  _112
REMARK   47  A    between atoms: _115  and  _117
REMARK   48  A    between atoms: _117  and  _118
REMARK   49  A    between atoms: _117  and  _120
REMARK   50  A    between atoms: _120  and  _121
REMARK   51  A    between atoms: _124  and  _126
REMARK   52  A    between atoms: _126  and  _127
REMARK   53  A    between atoms: _126  and  _129
REMARK   54  A    between atoms: _132  and  _134
REMARK   55  A    between atoms: _134  and  _135
REMARK   56  A    between atoms: _134  and  _137
REMARK   57  A    between atoms: _140  and  _142
REMARK   58  A    between atoms: _142  and  _143
REMARK   59  A    between atoms: _142  and  _145
REMARK   60  A    between atoms: _145  and  _146
REMARK   61  A    between atoms: _148  and  _150
REMARK   62  A    between atoms: _150  and  _151
REMARK   63  A    between atoms: _150  and  _153
REMARK   64  A    between atoms: _153  and  _154
REMARK   65  A    between atoms: _157  and  _159
REMARK   66  A    between atoms: _159  and  _160
REMARK   67  A    between atoms: _159  and  _162
REMARK   68  A    between atoms: _162  and  _163
REMARK   69  A    between atoms: _169  and  _171
REMARK   70  A    between atoms: _171  and  _172
REMARK   71  A    between atoms: _171  and  _174
REMARK   72  A    between atoms: _177  and  _179
REMARK   73  A    between atoms: _179  and  _180
REMARK   74  A    between atoms: _179  and  _182
REMARK   75  A    between atoms: _182  and  _183
REMARK   76  A    between atoms: _189  and  _190
REMARK   77  A    between atoms: _195  and  _197
REMARK   78  A    between atoms: _197  and  _198
REMARK   79  A    between atoms: _197  and  _200
REMARK   80  A    between atoms: _200  and  _201
REMARK   81  A    between atoms: _201  and  _202
REMARK   82  A    between atoms: _204  and  _206
REMARK   83  A    between atoms: _206  and  _207
REMARK   84  A    between atoms: _206  and  _209
REMARK   85  A    between atoms: _209  and  _210
REMARK   86  A    between atoms: _210  and  _211
REMARK   87  A    between atoms: _216  and  _218
REMARK   88  A    between atoms: _218  and  _219
REMARK   89  A    between atoms: _218  and  _221
REMARK   90  A    between atoms: _221  and  _222
REMARK   91  A    between atoms: _228  and  _230
REMARK   92  A    between atoms: _230  and  _231
REMARK   93  A    between atoms: _230  and  _233
REMARK   94  A    between atoms: _233  and  _234
REMARK   95  A    between atoms: _239  and  _240
REMARK   96  A    between atoms: _242  and  _244
REMARK   97  A    between atoms: _244  and  _245
REMARK   98  A    between atoms: _244  and  _247
REMARK   99  A    between atoms: _247  and  _248
REMARK  100  A    between atoms: _255  and  _256
REMARK  101  A    between atoms: _261  and  _263
REMARK  102  A    between atoms: _263  and  _264
REMARK  103  A    between atoms: _263  and  _266
REMARK  104  A    between atoms: _266  and  _267
REMARK  105  A    between atoms: _267  and  _268
REMARK  106  A    between atoms: _270  and  _272
REMARK  107  A    between atoms: _272  and  _273
REMARK  108  A    between atoms: _272  and  _275
REMARK  109  A    between atoms: _275  and  _276
REMARK  110  A    between atoms: _281  and  _282
REMARK  111  A    between atoms: _284  and  _286
REMARK  112  A    between atoms: _286  and  _287
REMARK  113  A    between atoms: _286  and  _289
REMARK  114  A    between atoms: _289  and  _290
REMARK  115  A    between atoms: _295  and  _297
REMARK  116  A    between atoms: _297  and  _298
REMARK  117  A    between atoms: _297  and  _300
REMARK  118  A    between atoms: _300  and  _301
REMARK  119  A    between atoms: _307  and  _309
REMARK  120  A    between atoms: _309  and  _310
REMARK  121  A    between atoms: _312  and  _314
REMARK  122  A    between atoms: _314  and  _315
REMARK  123  A    between atoms: _314  and  _317
REMARK  124  A    between atoms: _320  and  _322
REMARK  125  A    between atoms: _322  and  _323
REMARK  126  A    between atoms: _322  and  _325
REMARK  127  A    between atoms: _325  and  _326
REMARK  128  A    between atoms: _329  and  _331
REMARK  129  A    between atoms: _331  and  _332
REMARK  130  A    between atoms: _331  and  _334
REMARK  131  A    between atoms: _334  and  _335
REMARK  132  A    between atoms: _338  and  _340
REMARK  133  A    between atoms: _340  and  _341
REMARK  134  A    between atoms: _340  and  _343
REMARK  135  A    between atoms: _346  and  _348
REMARK  136  A    between atoms: _348  and  _349
REMARK  137  A    between atoms: _348  and  _351
REMARK  138  A    between atoms: _354  and  _356
REMARK  139  A    between atoms: _356  and  _357
REMARK  140  A    between atoms: _356  and  _359
REMARK  141  A    between atoms: _359  and  _360
REMARK  142  A    between atoms: _363  and  _365
REMARK  143  A    between atoms: _365  and  _366
REMARK  144  A    between atoms: _365  and  _368
REMARK  145  A    between atoms: _368  and  _369
REMARK  146  A    between atoms: _375  and  _377
REMARK  147  A    between atoms: _377  and  _378
REMARK  148  A    between atoms: _377  and  _380
REMARK  149  A    between atoms: _380  and  _381
REMARK  150  A    between atoms: _387  and  _389
REMARK  151  A    between atoms: _389  and  _390
REMARK  152  A    between atoms: _392  and  _394
REMARK  153  A    between atoms: _394  and  _395
REMARK  154  A    between atoms: _394  and  _397
REMARK  155  A    between atoms: _397  and  _398
REMARK  156  A    between atoms: _398  and  _399
REMARK  157  A    between atoms: _402  and  _404
REMARK  158  A    between atoms: _404  and  _405
REMARK  159  A    between atoms: _404  and  _407
REMARK  160  A    between atoms: _407  and  _408
REMARK  161  A    between atoms: _408  and  _409
REMARK  162  A    between atoms: _409  and  _410
REMARK  163  A    between atoms: _410  and  _411
REMARK  164  A    between atoms: _415  and  _417
REMARK  165  A    between atoms: _417  and  _418
REMARK  166  A    between atoms: _417  and  _420
REMARK  167  A    between atoms: _420  and  _421
REMARK  168  A    between atoms: _424  and  _426
REMARK  169  A    between atoms: _426  and  _427
REMARK  170  A    between atoms: _426  and  _429
REMARK  171  A    between atoms: _429  and  _430
REMARK  172  A    between atoms: _435  and  _436
REMARK  173  A    between atoms: _438  and  _440
REMARK  174  A    between atoms: _440  and  _441
REMARK  175  A    between atoms: _440  and  _443
REMARK  176  A    between atoms: _443  and  _444
REMARK  177  A    between atoms: _444  and  _445
REMARK  178  A    between atoms: _450  and  _452
REMARK  179  A    between atoms: _452  and  _453
REMARK  180  A    between atoms: _452  and  _455
REMARK  181  A    between atoms: _455  and  _456
REMARK  182  A    between atoms: _459  and  _461
REMARK  183  A    between atoms: _461  and  _462
REMARK  184  A    between atoms: _461  and  _464
REMARK  185  A    between atoms: _464  and  _465
REMARK  186  A    between atoms: _468  and  _470
REMARK  187  A    between atoms: _470  and  _471
REMARK  188  A    between atoms: _470  and  _473
REMARK  189  A    between atoms: _476  and  _478
REMARK  190  A    between atoms: _478  and  _479
REMARK  191  A    between atoms: _478  and  _481
REMARK  192  A    between atoms: _485  and  _486
REMARK  193  A    between atoms: _491  and  _493
REMARK  194  A    between atoms: _493  and  _494
REMARK  195  A    between atoms: _493  and  _496
REMARK  196  A    between atoms: _496  and  _497
REMARK  197  A    between atoms: _500  and  _502
REMARK  198  A    between atoms: _502  and  _503
REMARK  199  A    between atoms: _502  and  _505
REMARK  200  A    between atoms: _508  and  _510
REMARK  201  A    between atoms: _510  and  _511
REMARK  202  A    between atoms: _510  and  _513
REMARK  203  A    between atoms: _513  and  _514
REMARK  204  A    between atoms: _514  and  _515
REMARK  205  A    between atoms: _515  and  _516
REMARK  206  A    between atoms: _525  and  _527
REMARK  207  A    between atoms: _527  and  _528
REMARK  208  A    between atoms: _527  and  _530
REMARK  209  A    between atoms: _530  and  _531
REMARK  210  A    between atoms: _531  and  _532
REMARK  211  A    between atoms: _535  and  _537
REMARK  212  A    between atoms: _537  and  _538
REMARK  213  A    between atoms: _537  and  _540
REMARK  214  A    between atoms: _540  and  _541
REMARK  215  A    between atoms: _544  and  _546
REMARK  216  A    between atoms: _546  and  _547
REMARK  217  A    between atoms: _550  and  _552
REMARK  218  A    between atoms: _552  and  _553
REMARK  219  A    between atoms: _552  and  _555
REMARK  220  A    between atoms: _555  and  _556
REMARK  221  A    between atoms: _556  and  _557
REMARK  222  A    between atoms: _559  and  _561
REMARK  223  A    between atoms: _561  and  _562
REMARK  224  A    between atoms: _561  and  _564
REMARK  225  A    between atoms: _564  and  _565
REMARK  226  A    between atoms: _567  and  _569
REMARK  227  A    between atoms: _569  and  _570
REMARK  228  A    between atoms: _569  and  _572
REMARK  229  A    between atoms: _572  and  _573
REMARK  230  A    between atoms: _575  and  _577
REMARK  231  A    between atoms: _577  and  _578
REMARK  232  A    between atoms: _577  and  _580
REMARK  233  A    between atoms: _580  and  _581
REMARK  234  A    between atoms: _581  and  _582
REMARK  235  A    between atoms: _582  and  _583
REMARK  236  A    between atoms: _592  and  _594
REMARK  237  A    between atoms: _594  and  _595
REMARK  238  A    between atoms: _594  and  _597
REMARK  239  A    between atoms: _597  and  _598
REMARK  240  A    between atoms: _603  and  _605
REMARK  241  A    between atoms: _605  and  _606
REMARK  242  A    between atoms: _605  and  _608
REMARK  243  A    between atoms: _608  and  _609
REMARK  244  A    between atoms: _612  and  _614
REMARK  245  A    between atoms: _614  and  _615
REMARK  246  A    between atoms: _614  and  _617
REMARK  247  A    between atoms: _617  and  _618
REMARK  248  A    between atoms: _621  and  _623
REMARK  249  A    between atoms: _623  and  _624
REMARK  250  A    between atoms: _623  and  _626
REMARK  251  A    between atoms: _626  and  _627
REMARK                            x       y       z     vdW  Elec       q    Type
REMARK                         _______ _______ _______ _____ _____    ______ ____
ROOT
ATOM      1  O   HOH     1      13.446   5.447 -11.218  0.00  0.00    +0.000 OA
ENDROOT
TORSDOF 0
REMARK  Name = ../refined-set-2016/3iod/3iod_pocket.pdb
REMARK  251 active torsions:
REMARK  status: ('A' for Active; 'I' for Inactive)
REMARK    1  A    between atoms: _1  and  _3
REMARK    2  A    between atoms: _3  and  _4
REMARK    3  A    between atoms: _3  and  _6
REMARK    4  A    between atoms: _6  and  _7
REMARK    5  A    between atoms: _10  and  _12
REMARK    6  A    between atoms: _12  and  _13
REMARK    7  A    between atoms: _12  and  _15
REMARK    8  A    between atoms: _19  and  _20
REMARK    9  A    between atoms: _25  and  _27
REMARK   10  A    between atoms: _27  and  _28
REMARK   11  A    between atoms: _27  and  _30
REMARK   12  A    between atoms: _30  and  _31
REMARK   13  A    between atoms: _34  and  _36
REMARK   14  A    between atoms: _36  and  _37
REMARK   15  A    between atoms: _36  and  _39
REMARK   16  A    between atoms: _39  and  _40
REMARK   17  A    between atoms: _40  and  _41
REMARK   18  A    between atoms: _43  and  _45
REMARK   19  A    between atoms: _45  and  _46
REMARK   20  A    between atoms: _48  and  _50
REMARK   21  A    between atoms: _50  and  _51
REMARK   22  A    between atoms: _54  and  _56
REMARK   23  A    between atoms: _56  and  _57
REMARK   24  A    between atoms: _56  and  _59
REMARK   25  A    between atoms: _59  and  _60
REMARK   26  A    between atoms: _63  and  _65
REMARK   27  A    between atoms: _65  and  _66
REMARK   28  A    between atoms: _65  and  _68
REMARK   29  A    between atoms: _68  and  _69
REMARK   30  A    between atoms: _74  and  _76
REMARK   31  A    between atoms: _76  and  _77
REMARK   32  A    between atoms: _76  and  _79
REMARK   33  A    between atoms: _79  and  _80
REMARK   34  A    between atoms: _80  and  _81
REMARK   35  A    between atoms: _84  and  _86
REMARK   36  A    between atoms: _86  and  _87
REMARK   37  A    between atoms: _89  and  _91
REMARK   38  A    between atoms: _91  and  _92
REMARK   39  A    between atoms: _91  and  _94
REMARK   40  A    between atoms: _94  and  _95
REMARK   41  A    between atoms: _100  and  _102
REMARK   42  A    between atoms: _102  and  _103
REMARK   43  A    between atoms: _102  and  _105
REMARK   44  A    between atoms: _105  and  _106
REMARK   45  A    between atoms: _109  and  _111
REMARK   46  A    between atoms: _111  and  _112
REMARK   47  A    between atoms: _115  and  _117
REMARK   48  A    between atoms: _117  and  _118
REMARK   49  A    between atoms: _117  and  _120
REMARK   50  A    between atoms: _120  and  _121
REMARK   51  A    between atoms: _124  and  _126
REMARK   52  A    between atoms: _126  and  _127
REMARK   53  A    between atoms: _126  and  _129
REMARK   54  A    between atoms: _132  and  _134
REMARK   55  A    between atoms: _134  and  _135
REMARK   56  A    between atoms: _134  and  _137
REMARK   57  A    between atoms: _140  and  _142
REMARK   58  A    between atoms: _142  and  _143
REMARK   59  A    between atoms: _142  and  _145
REMARK   60  A    between atoms: _145  and  _146
REMARK   61  A    between atoms: _148  and  _150
REMARK   62  A    between atoms: _150  and  _151
REMARK   63  A    between atoms: _150  and  _153
REMARK   64  A    between atoms: _153  and  _154
REMARK   65  A    between atoms: _157  and  _159
REMARK   66  A    between atoms: _159  and  _160
REMARK   67  A    between atoms: _159  and  _162
REMARK   68  A    between atoms: _162  and  _163
REMARK   69  A    between atoms: _169  and  _171
REMARK   70  A    between atoms: _171  and  _172
REMARK   71  A    between atoms: _171  and  _174
REMARK   72  A    between atoms: _177  and  _179
REMARK   73  A    between atoms: _179  and  _180
REMARK   74  A    between atoms: _179  and  _182
REMARK   75  A    between atoms: _182  and  _183
REMARK   76  A    between atoms: _189  and  _190
REMARK   77  A    between atoms: _195  and  _197
REMARK   78  A    between atoms: _197  and  _198
REMARK   79  A    between atoms: _197  and  _200
REMARK   80  A    between atoms: _200  and  _201
REMARK   81  A    between atoms: _201  and  _202
REMARK   82  A    between atoms: _204  and  _206
REMARK   83  A    between atoms: _206  and  _207
REMARK   84  A    between atoms: _206  and  _209
REMARK   85  A    between atoms: _209  and  _210
REMARK   86  A    between atoms: _210  and  _211
REMARK   87  A    between atoms: _216  and  _218
REMARK   88  A    between atoms: _218  and  _219
REMARK   89  A    between atoms: _218  and  _221
REMARK   90  A    between atoms: _221  and  _222
REMARK   91  A    between atoms: _228  and  _230
REMARK   92  A    between atoms: _230  and  _231
REMARK   93  A    between atoms: _230  and  _233
REMARK   94  A    between atoms: _233  and  _234
REMARK   95  A    between atoms: _239  and  _240
REMARK   96  A    between atoms: _242  and  _244
REMARK   97  A    between atoms: _244  and  _245
REMARK   98  A    between atoms: _244  and  _247
REMARK   99  A    between atoms: _247  and  _248
REMARK  100  A    between atoms: _255  and  _256
REMARK  101  A    between atoms: _261  and  _263
REMARK  102  A    between atoms: _263  and  _264
REMARK  103  A    between atoms: _263  and  _266
REMARK  104  A    between atoms: _266  and  _267
REMARK  105  A    between atoms: _267  and  _268
REMARK  106  A    between atoms: _270  and  _272
REMARK  107  A    between atoms: _272  and  _273
REMARK  108  A    between atoms: _272  and  _275
REMARK  109  A    between atoms: _275  and  _276
REMARK  110  A    between atoms: _281  and  _282
REMARK  111  A    between atoms: _284  and  _286
REMARK  112  A    between atoms: _286  and  _287
REMARK  113  A    between atoms: _286  and  _289
REMARK  114  A    between atoms: _289  and  _290
REMARK  115  A    between atoms: _295  and  _297
REMARK  116  A    between atoms: _297  and  _298
REMARK  117  A    between atoms: _297  and  _300
REMARK  118  A    between atoms: _300  and  _301
REMARK  119  A    between atoms: _307  and  _309
REMARK  120  A    between atoms: _309  and  _310
REMARK  121  A    between atoms: _312  and  _314
REMARK  122  A    between atoms: _314  and  _315
REMARK  123  A    between atoms: _314  and  _317
REMARK  124  A    between atoms: _320  and  _322
REMARK  125  A    between atoms: _322  and  _323
REMARK  126  A    between atoms: _322  and  _325
REMARK  127  A    between atoms: _325  and  _326
REMARK  128  A    between atoms: _329  and  _331
REMARK  129  A    between atoms: _331  and  _332
REMARK  130  A    between atoms: _331  and  _334
REMARK  131  A    between atoms: _334  and  _335
REMARK  132  A    between atoms: _338  and  _340
REMARK  133  A    between atoms: _340  and  _341
REMARK  134  A    between atoms: _340  and  _343
REMARK  135  A    between atoms: _346  and  _348
REMARK  136  A    between atoms: _348  and  _349
REMARK  137  A    between atoms: _348  and  _351
REMARK  138  A    between atoms: _354  and  _356
REMARK  139  A    between atoms: _356  and  _357
REMARK  140  A    between atoms: _356  and  _359
REMARK  141  A    between atoms: _359  and  _360
REMARK  142  A    between atoms: _363  and  _365
REMARK  143  A    between atoms: _365  and  _366
REMARK  144  A    between atoms: _365  and  _368
REMARK  145  A    between atoms: _368  and  _369
REMARK  146  A    between atoms: _375  and  _377
REMARK  147  A    between atoms: _377  and  _378
REMARK  148  A    between atoms: _377  and  _380
REMARK  149  A    between atoms: _380  and  _381
REMARK  150  A    between atoms: _387  and  _389
REMARK  151  A    between atoms: _389  and  _390
REMARK  152  A    between atoms: _392  and  _394
REMARK  153  A    between atoms: _394  and  _395
REMARK  154  A    between atoms: _394  and  _397
REMARK  155  A    between atoms: _397  and  _398
REMARK  156  A    between atoms: _398  and  _399
REMARK  157  A    between atoms: _402  and  _404
REMARK  158  A    between atoms: _404  and  _405
REMARK  159  A    between atoms: _404  and  _407
REMARK  160  A    between atoms: _407  and  _408
REMARK  161  A    between atoms: _408  and  _409
REMARK  162  A    between atoms: _409  and  _410
REMARK  163  A    between atoms: _410  and  _411
REMARK  164  A    between atoms: _415  and  _417
REMARK  165  A    between atoms: _417  and  _418
REMARK  166  A    between atoms: _417  and  _420
REMARK  167  A    between atoms: _420  and  _421
REMARK  168  A    between atoms: _424  and  _426
REMARK  169  A    between atoms: _426  and  _427
REMARK  170  A    between atoms: _426  and  _429
REMARK  171  A    between atoms: _429  and  _430
REMARK  172  A    between atoms: _435  and  _436
REMARK  173  A    between atoms: _438  and  _440
REMARK  174  A    between atoms: _440  and  _441
REMARK  175  A    between atoms: _440  and  _443
REMARK  176  A    between atoms: _443  and  _444
REMARK  177  A    between atoms: _444  and  _445
REMARK  178  A    between atoms: _450  and  _452
REMARK  179  A    between atoms: _452  and  _453
REMARK  180  A    between atoms: _452  and  _455
REMARK  181  A    between atoms: _455  and  _456
REMARK  182  A    between atoms: _459  and  _461
REMARK  183  A    between atoms: _461  and  _462
REMARK  184  A    between atoms: _461  and  _464
REMARK  185  A    between atoms: _464  and  _465
REMARK  186  A    between atoms: _468  and  _470
REMARK  187  A    between atoms: _470  and  _471
REMARK  188  A    between atoms: _470  and  _473
REMARK  189  A    between atoms: _476  and  _478
REMARK  190  A    between atoms: _478  and  _479
REMARK  191  A    between atoms: _478  and  _481
REMARK  192  A    between atoms: _485  and  _486
REMARK  193  A    between atoms: _491  and  _493
REMARK  194  A    between atoms: _493  and  _494
REMARK  195  A    between atoms: _493  and  _496
REMARK  196  A    between atoms: _496  and  _497
REMARK  197  A    between atoms: _500  and  _502
REMARK  198  A    between atoms: _502  and  _503
REMARK  199  A    between atoms: _502  and  _505
REMARK  200  A    between atoms: _508  and  _510
REMARK  201  A    between atoms: _510  and  _511
REMARK  202  A    between atoms: _510  and  _513
REMARK  203  A    between atoms: _513  and  _514
REMARK  204  A    between atoms: _514  and  _515
REMARK  205  A    between atoms: _515  and  _516
REMARK  206  A    between atoms: _525  and  _527
REMARK  207  A    between atoms: _527  and  _528
REMARK  208  A    between atoms: _527  and  _530
REMARK  209  A    between atoms: _530  and  _531
REMARK  210  A    between atoms: _531  and  _532
REMARK  211  A    between atoms: _535  and  _537
REMARK  212  A    between atoms: _537  and  _538
REMARK  213  A    between atoms: _537  and  _540
REMARK  214  A    between atoms: _540  and  _541
REMARK  215  A    between atoms: _544  and  _546
REMARK  216  A    between atoms: _546  and  _547
REMARK  217  A    between atoms: _550  and  _552
REMARK  218  A    between atoms: _552  and  _553
REMARK  219  A    between atoms: _552  and  _555
REMARK  220  A    between atoms: _555  and  _556
REMARK  221  A    between atoms: _556  and  _557
REMARK  222  A    between atoms: _559  and  _561
REMARK  223  A    between atoms: _561  and  _562
REMARK  224  A    between atoms: _561  and  _564
REMARK  225  A    between atoms: _564  and  _565
REMARK  226  A    between atoms: _567  and  _569
REMARK  227  A    between atoms: _569  and  _570
REMARK  228  A    between atoms: _569  and  _572
REMARK  229  A    between atoms: _572  and  _573
REMARK  230  A    between atoms: _575  and  _577
REMARK  231  A    between atoms: _577  and  _578
REMARK  232  A    between atoms: _577  and  _580
REMARK  233  A    between atoms: _580  and  _581
REMARK  234  A    between atoms: _581  and  _582
REMARK  235  A    between atoms: _582  and  _583
REMARK  236  A    between atoms: _592  and  _594
REMARK  237  A    between atoms: _594  and  _595
REMARK  238  A    between atoms: _594  and  _597
REMARK  239  A    between atoms: _597  and  _598
REMARK  240  A    between atoms: _603  and  _605
REMARK  241  A    between atoms: _605  and  _606
REMARK  242  A    between atoms: _605  and  _608
REMARK  243  A    between atoms: _608  and  _609
REMARK  244  A    between atoms: _612  and  _614
REMARK  245  A    between atoms: _614  and  _615
REMARK  246  A    between atoms: _614  and  _617
REMARK  247  A    between atoms: _617  and  _618
REMARK  248  A    between atoms: _621  and  _623
REMARK  249  A    between atoms: _623  and  _624
REMARK  250  A    between atoms: _623  and  _626
REMARK  251  A    between atoms: _626  and  _627
REMARK                            x       y       z     vdW  Elec       q    Type
REMARK                         _______ _______ _______ _____ _____    ______ ____
ROOT
ATOM      1  O   HOH     1       8.611   8.867  -8.388  0.00  0.00    +0.000 OA
ENDROOT
TORSDOF 0
REMARK  Name = ../refined-set-2016/3iod/3iod_pocket.pdb
REMARK  251 active torsions:
REMARK  status: ('A' for Active; 'I' for Inactive)
REMARK    1  A    between atoms: _1  and  _3
REMARK    2  A    between atoms: _3  and  _4
REMARK    3  A    between atoms: _3  and  _6
REMARK    4  A    between atoms: _6  and  _7
REMARK    5  A    between atoms: _10  and  _12
REMARK    6  A    between atoms: _12  and  _13
REMARK    7  A    between atoms: _12  and  _15
REMARK    8  A    between atoms: _19  and  _20
REMARK    9  A    between atoms: _25  and  _27
REMARK   10  A    between atoms: _27  and  _28
REMARK   11  A    between atoms: _27  and  _30
REMARK   12  A    between atoms: _30  and  _31
REMARK   13  A    between atoms: _34  and  _36
REMARK   14  A    between atoms: _36  and  _37
REMARK   15  A    between atoms: _36  and  _39
REMARK   16  A    between atoms: _39  and  _40
REMARK   17  A    between atoms: _40  and  _41
REMARK   18  A    between atoms: _43  and  _45
REMARK   19  A    between atoms: _45  and  _46
REMARK   20  A    between atoms: _48  and  _50
REMARK   21  A    between atoms: _50  and  _51
REMARK   22  A    between atoms: _54  and  _56
REMARK   23  A    between atoms: _56  and  _57
REMARK   24  A    between atoms: _56  and  _59
REMARK   25  A    between atoms: _59  and  _60
REMARK   26  A    between atoms: _63  and  _65
REMARK   27  A    between atoms: _65  and  _66
REMARK   28  A    between atoms: _65  and  _68
REMARK   29  A    between atoms: _68  and  _69
REMARK   30  A    between atoms: _74  and  _76
REMARK   31  A    between atoms: _76  and  _77
REMARK   32  A    between atoms: _76  and  _79
REMARK   33  A    between atoms: _79  and  _80
REMARK   34  A    between atoms: _80  and  _81
REMARK   35  A    between atoms: _84  and  _86
REMARK   36  A    between atoms: _86  and  _87
REMARK   37  A    between atoms: _89  and  _91
REMARK   38  A    between atoms: _91  and  _92
REMARK   39  A    between atoms: _91  and  _94
REMARK   40  A    between atoms: _94  and  _95
REMARK   41  A    between atoms: _100  and  _102
REMARK   42  A    between atoms: _102  and  _103
REMARK   43  A    between atoms: _102  and  _105
REMARK   44  A    between atoms: _105  and  _106
REMARK   45  A    between atoms: _109  and  _111
REMARK   46  A    between atoms: _111  and  _112
REMARK   47  A    between atoms: _115  and  _117
REMARK   48  A    between atoms: _117  and  _118
REMARK   49  A    between atoms: _117  and  _120
REMARK   50  A    between atoms: _120  and  _121
REMARK   51  A    between atoms: _124  and  _126
REMARK   52  A    between atoms: _126  and  _127
REMARK   53  A    between atoms: _126  and  _129
REMARK   54  A    between atoms: _132  and  _134
REMARK   55  A    between atoms: _134  and  _135
REMARK   56  A    between atoms: _134  and  _137
REMARK   57  A    between atoms: _140  and  _142
REMARK   58  A    between atoms: _142  and  _143
REMARK   59  A    between atoms: _142  and  _145
REMARK   60  A    between atoms: _145  and  _146
REMARK   61  A    between atoms: _148  and  _150
REMARK   62  A    between atoms: _150  and  _151
REMARK   63  A    between atoms: _150  and  _153
REMARK   64  A    between atoms: _153  and  _154
REMARK   65  A    between atoms: _157  and  _159
REMARK   66  A    between atoms: _159  and  _160
REMARK   67  A    between atoms: _159  and  _162
REMARK   68  A    between atoms: _162  and  _163
REMARK   69  A    between atoms: _169  and  _171
REMARK   70  A    between atoms: _171  and  _172
REMARK   71  A    between atoms: _171  and  _174
REMARK   72  A    between atoms: _177  and  _179
REMARK   73  A    between atoms: _179  and  _180
REMARK   74  A    between atoms: _179  and  _182
REMARK   75  A    between atoms: _182  and  _183
REMARK   76  A    between atoms: _189  and  _190
REMARK   77  A    between atoms: _195  and  _197
REMARK   78  A    between atoms: _197  and  _198
REMARK   79  A    between atoms: _197  and  _200
REMARK   80  A    between atoms: _200  and  _201
REMARK   81  A    between atoms: _201  and  _202
REMARK   82  A    between atoms: _204  and  _206
REMARK   83  A    between atoms: _206  and  _207
REMARK   84  A    between atoms: _206  and  _209
REMARK   85  A    between atoms: _209  and  _210
REMARK   86  A    between atoms: _210  and  _211
REMARK   87  A    between atoms: _216  and  _218
REMARK   88  A    between atoms: _218  and  _219
REMARK   89  A    between atoms: _218  and  _221
REMARK   90  A    between atoms: _221  and  _222
REMARK   91  A    between atoms: _228  and  _230
REMARK   92  A    between atoms: _230  and  _231
REMARK   93  A    between atoms: _230  and  _233
REMARK   94  A    between atoms: _233  and  _234
REMARK   95  A    between atoms: _239  and  _240
REMARK   96  A    between atoms: _242  and  _244
REMARK   97  A    between atoms: _244  and  _245
REMARK   98  A    between atoms: _244  and  _247
REMARK   99  A    between atoms: _247  and  _248
REMARK  100  A    between atoms: _255  and  _256
REMARK  101  A    between atoms: _261  and  _263
REMARK  102  A    between atoms: _263  and  _264
REMARK  103  A    between atoms: _263  and  _266
REMARK  104  A    between atoms: _266  and  _267
REMARK  105  A    between atoms: _267  and  _268
REMARK  106  A    between atoms: _270  and  _272
REMARK  107  A    between atoms: _272  and  _273
REMARK  108  A    between atoms: _272  and  _275
REMARK  109  A    between atoms: _275  and  _276
REMARK  110  A    between atoms: _281  and  _282
REMARK  111  A    between atoms: _284  and  _286
REMARK  112  A    between atoms: _286  and  _287
REMARK  113  A    between atoms: _286  and  _289
REMARK  114  A    between atoms: _289  and  _290
REMARK  115  A    between atoms: _295  and  _297
REMARK  116  A    between atoms: _297  and  _298
REMARK  117  A    between atoms: _297  and  _300
REMARK  118  A    between atoms: _300  and  _301
REMARK  119  A    between atoms: _307  and  _309
REMARK  120  A    between atoms: _309  and  _310
REMARK  121  A    between atoms: _312  and  _314
REMARK  122  A    between atoms: _314  and  _315
REMARK  123  A    between atoms: _314  and  _317
REMARK  124  A    between atoms: _320  and  _322
REMARK  125  A    between atoms: _322  and  _323
REMARK  126  A    between atoms: _322  and  _325
REMARK  127  A    between atoms: _325  and  _326
REMARK  128  A    between atoms: _329  and  _331
REMARK  129  A    between atoms: _331  and  _332
REMARK  130  A    between atoms: _331  and  _334
REMARK  131  A    between atoms: _334  and  _335
REMARK  132  A    between atoms: _338  and  _340
REMARK  133  A    between atoms: _340  and  _341
REMARK  134  A    between atoms: _340  and  _343
REMARK  135  A    between atoms: _346  and  _348
REMARK  136  A    between atoms: _348  and  _349
REMARK  137  A    between atoms: _348  and  _351
REMARK  138  A    between atoms: _354  and  _356
REMARK  139  A    between atoms: _356  and  _357
REMARK  140  A    between atoms: _356  and  _359
REMARK  141  A    between atoms: _359  and  _360
REMARK  142  A    between atoms: _363  and  _365
REMARK  143  A    between atoms: _365  and  _366
REMARK  144  A    between atoms: _365  and  _368
REMARK  145  A    between atoms: _368  and  _369
REMARK  146  A    between atoms: _375  and  _377
REMARK  147  A    between atoms: _377  and  _378
REMARK  148  A    between atoms: _377  and  _380
REMARK  149  A    between atoms: _380  and  _381
REMARK  150  A    between atoms: _387  and  _389
REMARK  151  A    between atoms: _389  and  _390
REMARK  152  A    between atoms: _392  and  _394
REMARK  153  A    between atoms: _394  and  _395
REMARK  154  A    between atoms: _394  and  _397
REMARK  155  A    between atoms: _397  and  _398
REMARK  156  A    between atoms: _398  and  _399
REMARK  157  A    between atoms: _402  and  _404
REMARK  158  A    between atoms: _404  and  _405
REMARK  159  A    between atoms: _404  and  _407
REMARK  160  A    between atoms: _407  and  _408
REMARK  161  A    between atoms: _408  and  _409
REMARK  162  A    between atoms: _409  and  _410
REMARK  163  A    between atoms: _410  and  _411
REMARK  164  A    between atoms: _415  and  _417
REMARK  165  A    between atoms: _417  and  _418
REMARK  166  A    between atoms: _417  and  _420
REMARK  167  A    between atoms: _420  and  _421
REMARK  168  A    between atoms: _424  and  _426
REMARK  169  A    between atoms: _426  and  _427
REMARK  170  A    between atoms: _426  and  _429
REMARK  171  A    between atoms: _429  and  _430
REMARK  172  A    between atoms: _435  and  _436
REMARK  173  A    between atoms: _438  and  _440
REMARK  174  A    between atoms: _440  and  _441
REMARK  175  A    between atoms: _440  and  _443
REMARK  176  A    between atoms: _443  and  _444
REMARK  177  A    between atoms: _444  and  _445
REMARK  178  A    between atoms: _450  and  _452
REMARK  179  A    between atoms: _452  and  _453
REMARK  180  A    between atoms: _452  and  _455
REMARK  181  A    between atoms: _455  and  _456
REMARK  182  A    between atoms: _459  and  _461
REMARK  183  A    between atoms: _461  and  _462
REMARK  184  A    between atoms: _461  and  _464
REMARK  185  A    between atoms: _464  and  _465
REMARK  186  A    between atoms: _468  and  _470
REMARK  187  A    between atoms: _470  and  _471
REMARK  188  A    between atoms: _470  and  _473
REMARK  189  A    between atoms: _476  and  _478
REMARK  190  A    between atoms: _478  and  _479
REMARK  191  A    between atoms: _478  and  _481
REMARK  192  A    between atoms: _485  and  _486
REMARK  193  A    between atoms: _491  and  _493
REMARK  194  A    between atoms: _493  and  _494
REMARK  195  A    between atoms: _493  and  _496
REMARK  196  A    between atoms: _496  and  _497
REMARK  197  A    between atoms: _500  and  _502
REMARK  198  A    between atoms: _502  and  _503
REMARK  199  A    between atoms: _502  and  _505
REMARK  200  A    between atoms: _508  and  _510
REMARK  201  A    between atoms: _510  and  _511
REMARK  202  A    between atoms: _510  and  _513
REMARK  203  A    between atoms: _513  and  _514
REMARK  204  A    between atoms: _514  and  _515
REMARK  205  A    between atoms: _515  and  _516
REMARK  206  A    between atoms: _525  and  _527
REMARK  207  A    between atoms: _527  and  _528
REMARK  208  A    between atoms: _527  and  _530
REMARK  209  A    between atoms: _530  and  _531
REMARK  210  A    between atoms: _531  and  _532
REMARK  211  A    between atoms: _535  and  _537
REMARK  212  A    between atoms: _537  and  _538
REMARK  213  A    between atoms: _537  and  _540
REMARK  214  A    between atoms: _540  and  _541
REMARK  215  A    between atoms: _544  and  _546
REMARK  216  A    between atoms: _546  and  _547
REMARK  217  A    between atoms: _550  and  _552
REMARK  218  A    between atoms: _552  and  _553
REMARK  219  A    between atoms: _552  and  _555
REMARK  220  A    between atoms: _555  and  _556
REMARK  221  A    between atoms: _556  and  _557
REMARK  222  A    between atoms: _559  and  _561
REMARK  223  A    between atoms: _561  and  _562
REMARK  224  A    between atoms: _561  and  _564
REMARK  225  A    between atoms: _564  and  _565
REMARK  226  A    between atoms: _567  and  _569
REMARK  227  A    between atoms: _569  and  _570
REMARK  228  A    between atoms: _569  and  _572
REMARK  229  A    between atoms: _572  and  _573
REMARK  230  A    between atoms: _575  and  _577
REMARK  231  A    between atoms: _577  and  _578
REMARK  232  A    between atoms: _577  and  _580
REMARK  233  A    between atoms: _580  and  _581
REMARK  234  A    between atoms: _581  and  _582
REMARK  235  A    between atoms: _582  and  _583
REMARK  236  A    between atoms: _592  and  _594
REMARK  237  A    between atoms: _594  and  _595
REMARK  238  A    between atoms: _594  and  _597
REMARK  239  A    between atoms: _597  and  _598
REMARK  240  A    between atoms: _603  and  _605
REMARK  241  A    between atoms: _605  and  _606
REMARK  242  A    between atoms: _605  and  _608
REMARK  243  A    between atoms: _608  and  _609
REMARK  244  A    between atoms: _612  and  _614
REMARK  245  A    between atoms: _614  and  _615
REMARK  246  A    between atoms: _614  and  _617
REMARK  247  A    between atoms: _617  and  _618
REMARK  248  A    between atoms: _621  and  _623
REMARK  249  A    between atoms: _623  and  _624
REMARK  250  A    between atoms: _623  and  _626
REMARK  251  A    between atoms: _626  and  _627
REMARK                            x       y       z     vdW  Elec       q    Type
REMARK                         _______ _______ _______ _____ _____    ______ ____
ROOT
ATOM      1  O   HOH     1      19.918   4.139   2.836  0.00  0.00    +0.000 OA
ENDROOT
TORSDOF 0
REMARK  Name = ../refined-set-2016/3iod/3iod_pocket.pdb
REMARK  251 active torsions:
REMARK  status: ('A' for Active; 'I' for Inactive)
REMARK    1  A    between atoms: _1  and  _3
REMARK    2  A    between atoms: _3  and  _4
REMARK    3  A    between atoms: _3  and  _6
REMARK    4  A    between atoms: _6  and  _7
REMARK    5  A    between atoms: _10  and  _12
REMARK    6  A    between atoms: _12  and  _13
REMARK    7  A    between atoms: _12  and  _15
REMARK    8  A    between atoms: _19  and  _20
REMARK    9  A    between atoms: _25  and  _27
REMARK   10  A    between atoms: _27  and  _28
REMARK   11  A    between atoms: _27  and  _30
REMARK   12  A    between atoms: _30  and  _31
REMARK   13  A    between atoms: _34  and  _36
REMARK   14  A    between atoms: _36  and  _37
REMARK   15  A    between atoms: _36  and  _39
REMARK   16  A    between atoms: _39  and  _40
REMARK   17  A    between atoms: _40  and  _41
REMARK   18  A    between atoms: _43  and  _45
REMARK   19  A    between atoms: _45  and  _46
REMARK   20  A    between atoms: _48  and  _50
REMARK   21  A    between atoms: _50  and  _51
REMARK   22  A    between atoms: _54  and  _56
REMARK   23  A    between atoms: _56  and  _57
REMARK   24  A    between atoms: _56  and  _59
REMARK   25  A    between atoms: _59  and  _60
REMARK   26  A    between atoms: _63  and  _65
REMARK   27  A    between atoms: _65  and  _66
REMARK   28  A    between atoms: _65  and  _68
REMARK   29  A    between atoms: _68  and  _69
REMARK   30  A    between atoms: _74  and  _76
REMARK   31  A    between atoms: _76  and  _77
REMARK   32  A    between atoms: _76  and  _79
REMARK   33  A    between atoms: _79  and  _80
REMARK   34  A    between atoms: _80  and  _81
REMARK   35  A    between atoms: _84  and  _86
REMARK   36  A    between atoms: _86  and  _87
REMARK   37  A    between atoms: _89  and  _91
REMARK   38  A    between atoms: _91  and  _92
REMARK   39  A    between atoms: _91  and  _94
REMARK   40  A    between atoms: _94  and  _95
REMARK   41  A    between atoms: _100  and  _102
REMARK   42  A    between atoms: _102  and  _103
REMARK   43  A    between atoms: _102  and  _105
REMARK   44  A    between atoms: _105  and  _106
REMARK   45  A    between atoms: _109  and  _111
REMARK   46  A    between atoms: _111  and  _112
REMARK   47  A    between atoms: _115  and  _117
REMARK   48  A    between atoms: _117  and  _118
REMARK   49  A    between atoms: _117  and  _120
REMARK   50  A    between atoms: _120  and  _121
REMARK   51  A    between atoms: _124  and  _126
REMARK   52  A    between atoms: _126  and  _127
REMARK   53  A    between atoms: _126  and  _129
REMARK   54  A    between atoms: _132  and  _134
REMARK   55  A    between atoms: _134  and  _135
REMARK   56  A    between atoms: _134  and  _137
REMARK   57  A    between atoms: _140  and  _142
REMARK   58  A    between atoms: _142  and  _143
REMARK   59  A    between atoms: _142  and  _145
REMARK   60  A    between atoms: _145  and  _146
REMARK   61  A    between atoms: _148  and  _150
REMARK   62  A    between atoms: _150  and  _151
REMARK   63  A    between atoms: _150  and  _153
REMARK   64  A    between atoms: _153  and  _154
REMARK   65  A    between atoms: _157  and  _159
REMARK   66  A    between atoms: _159  and  _160
REMARK   67  A    between atoms: _159  and  _162
REMARK   68  A    between atoms: _162  and  _163
REMARK   69  A    between atoms: _169  and  _171
REMARK   70  A    between atoms: _171  and  _172
REMARK   71  A    between atoms: _171  and  _174
REMARK   72  A    between atoms: _177  and  _179
REMARK   73  A    between atoms: _179  and  _180
REMARK   74  A    between atoms: _179  and  _182
REMARK   75  A    between atoms: _182  and  _183
REMARK   76  A    between atoms: _189  and  _190
REMARK   77  A    between atoms: _195  and  _197
REMARK   78  A    between atoms: _197  and  _198
REMARK   79  A    between atoms: _197  and  _200
REMARK   80  A    between atoms: _200  and  _201
REMARK   81  A    between atoms: _201  and  _202
REMARK   82  A    between atoms: _204  and  _206
REMARK   83  A    between atoms: _206  and  _207
REMARK   84  A    between atoms: _206  and  _209
REMARK   85  A    between atoms: _209  and  _210
REMARK   86  A    between atoms: _210  and  _211
REMARK   87  A    between atoms: _216  and  _218
REMARK   88  A    between atoms: _218  and  _219
REMARK   89  A    between atoms: _218  and  _221
REMARK   90  A    between atoms: _221  and  _222
REMARK   91  A    between atoms: _228  and  _230
REMARK   92  A    between atoms: _230  and  _231
REMARK   93  A    between atoms: _230  and  _233
REMARK   94  A    between atoms: _233  and  _234
REMARK   95  A    between atoms: _239  and  _240
REMARK   96  A    between atoms: _242  and  _244
REMARK   97  A    between atoms: _244  and  _245
REMARK   98  A    between atoms: _244  and  _247
REMARK   99  A    between atoms: _247  and  _248
REMARK  100  A    between atoms: _255  and  _256
REMARK  101  A    between atoms: _261  and  _263
REMARK  102  A    between atoms: _263  and  _264
REMARK  103  A    between atoms: _263  and  _266
REMARK  104  A    between atoms: _266  and  _267
REMARK  105  A    between atoms: _267  and  _268
REMARK  106  A    between atoms: _270  and  _272
REMARK  107  A    between atoms: _272  and  _273
REMARK  108  A    between atoms: _272  and  _275
REMARK  109  A    between atoms: _275  and  _276
REMARK  110  A    between atoms: _281  and  _282
REMARK  111  A    between atoms: _284  and  _286
REMARK  112  A    between atoms: _286  and  _287
REMARK  113  A    between atoms: _286  and  _289
REMARK  114  A    between atoms: _289  and  _290
REMARK  115  A    between atoms: _295  and  _297
REMARK  116  A    between atoms: _297  and  _298
REMARK  117  A    between atoms: _297  and  _300
REMARK  118  A    between atoms: _300  and  _301
REMARK  119  A    between atoms: _307  and  _309
REMARK  120  A    between atoms: _309  and  _310
REMARK  121  A    between atoms: _312  and  _314
REMARK  122  A    between atoms: _314  and  _315
REMARK  123  A    between atoms: _314  and  _317
REMARK  124  A    between atoms: _320  and  _322
REMARK  125  A    between atoms: _322  and  _323
REMARK  126  A    between atoms: _322  and  _325
REMARK  127  A    between atoms: _325  and  _326
REMARK  128  A    between atoms: _329  and  _331
REMARK  129  A    between atoms: _331  and  _332
REMARK  130  A    between atoms: _331  and  _334
REMARK  131  A    between atoms: _334  and  _335
REMARK  132  A    between atoms: _338  and  _340
REMARK  133  A    between atoms: _340  and  _341
REMARK  134  A    between atoms: _340  and  _343
REMARK  135  A    between atoms: _346  and  _348
REMARK  136  A    between atoms: _348  and  _349
REMARK  137  A    between atoms: _348  and  _351
REMARK  138  A    between atoms: _354  and  _356
REMARK  139  A    between atoms: _356  and  _357
REMARK  140  A    between atoms: _356  and  _359
REMARK  141  A    between atoms: _359  and  _360
REMARK  142  A    between atoms: _363  and  _365
REMARK  143  A    between atoms: _365  and  _366
REMARK  144  A    between atoms: _365  and  _368
REMARK  145  A    between atoms: _368  and  _369
REMARK  146  A    between atoms: _375  and  _377
REMARK  147  A    between atoms: _377  and  _378
REMARK  148  A    between atoms: _377  and  _380
REMARK  149  A    between atoms: _380  and  _381
REMARK  150  A    between atoms: _387  and  _389
REMARK  151  A    between atoms: _389  and  _390
REMARK  152  A    between atoms: _392  and  _394
REMARK  153  A    between atoms: _394  and  _395
REMARK  154  A    between atoms: _394  and  _397
REMARK  155  A    between atoms: _397  and  _398
REMARK  156  A    between atoms: _398  and  _399
REMARK  157  A    between atoms: _402  and  _404
REMARK  158  A    between atoms: _404  and  _405
REMARK  159  A    between atoms: _404  and  _407
REMARK  160  A    between atoms: _407  and  _408
REMARK  161  A    between atoms: _408  and  _409
REMARK  162  A    between atoms: _409  and  _410
REMARK  163  A    between atoms: _410  and  _411
REMARK  164  A    between atoms: _415  and  _417
REMARK  165  A    between atoms: _417  and  _418
REMARK  166  A    between atoms: _417  and  _420
REMARK  167  A    between atoms: _420  and  _421
REMARK  168  A    between atoms: _424  and  _426
REMARK  169  A    between atoms: _426  and  _427
REMARK  170  A    between atoms: _426  and  _429
REMARK  171  A    between atoms: _429  and  _430
REMARK  172  A    between atoms: _435  and  _436
REMARK  173  A    between atoms: _438  and  _440
REMARK  174  A    between atoms: _440  and  _441
REMARK  175  A    between atoms: _440  and  _443
REMARK  176  A    between atoms: _443  and  _444
REMARK  177  A    between atoms: _444  and  _445
REMARK  178  A    between atoms: _450  and  _452
REMARK  179  A    between atoms: _452  and  _453
REMARK  180  A    between atoms: _452  and  _455
REMARK  181  A    between atoms: _455  and  _456
REMARK  182  A    between atoms: _459  and  _461
REMARK  183  A    between atoms: _461  and  _462
REMARK  184  A    between atoms: _461  and  _464
REMARK  185  A    between atoms: _464  and  _465
REMARK  186  A    between atoms: _468  and  _470
REMARK  187  A    between atoms: _470  and  _471
REMARK  188  A    between atoms: _470  and  _473
REMARK  189  A    between atoms: _476  and  _478
REMARK  190  A    between atoms: _478  and  _479
REMARK  191  A    between atoms: _478  and  _481
REMARK  192  A    between atoms: _485  and  _486
REMARK  193  A    between atoms: _491  and  _493
REMARK  194  A    between atoms: _493  and  _494
REMARK  195  A    between atoms: _493  and  _496
REMARK  196  A    between atoms: _496  and  _497
REMARK  197  A    between atoms: _500  and  _502
REMARK  198  A    between atoms: _502  and  _503
REMARK  199  A    between atoms: _502  and  _505
REMARK  200  A    between atoms: _508  and  _510
REMARK  201  A    between atoms: _510  and  _511
REMARK  202  A    between atoms: _510  and  _513
REMARK  203  A    between atoms: _513  and  _514
REMARK  204  A    between atoms: _514  and  _515
REMARK  205  A    between atoms: _515  and  _516
REMARK  206  A    between atoms: _525  and  _527
REMARK  207  A    between atoms: _527  and  _528
REMARK  208  A    between atoms: _527  and  _530
REMARK  209  A    between atoms: _530  and  _531
REMARK  210  A    between atoms: _531  and  _532
REMARK  211  A    between atoms: _535  and  _537
REMARK  212  A    between atoms: _537  and  _538
REMARK  213  A    between atoms: _537  and  _540
REMARK  214  A    between atoms: _540  and  _541
REMARK  215  A    between atoms: _544  and  _546
REMARK  216  A    between atoms: _546  and  _547
REMARK  217  A    between atoms: _550  and  _552
REMARK  218  A    between atoms: _552  and  _553
REMARK  219  A    between atoms: _552  and  _555
REMARK  220  A    between atoms: _555  and  _556
REMARK  221  A    between atoms: _556  and  _557
REMARK  222  A    between atoms: _559  and  _561
REMARK  223  A    between atoms: _561  and  _562
REMARK  224  A    between atoms: _561  and  _564
REMARK  225  A    between atoms: _564  and  _565
REMARK  226  A    between atoms: _567  and  _569
REMARK  227  A    between atoms: _569  and  _570
REMARK  228  A    between atoms: _569  and  _572
REMARK  229  A    between atoms: _572  and  _573
REMARK  230  A    between atoms: _575  and  _577
REMARK  231  A    between atoms: _577  and  _578
REMARK  232  A    between atoms: _577  and  _580
REMARK  233  A    between atoms: _580  and  _581
REMARK  234  A    between atoms: _581  and  _582
REMARK  235  A    between atoms: _582  and  _583
REMARK  236  A    between atoms: _592  and  _594
REMARK  237  A    between atoms: _594  and  _595
REMARK  238  A    between atoms: _594  and  _597
REMARK  239  A    between atoms: _597  and  _598
REMARK  240  A    between atoms: _603  and  _605
REMARK  241  A    between atoms: _605  and  _606
REMARK  242  A    between atoms: _605  and  _608
REMARK  243  A    between atoms: _608  and  _609
REMARK  244  A    between atoms: _612  and  _614
REMARK  245  A    between atoms: _614  and  _615
REMARK  246  A    between atoms: _614  and  _617
REMARK  247  A    between atoms: _617  and  _618
REMARK  248  A    between atoms: _621  and  _623
REMARK  249  A    between atoms: _623  and  _624
REMARK  250  A    between atoms: _623  and  _626
REMARK  251  A    between atoms: _626  and  _627
REMARK                            x       y       z     vdW  Elec       q    Type
REMARK                         _______ _______ _______ _____ _____    ______ ____
ROOT
ATOM      1  O   HOH     1      19.091   4.823   5.515  0.00  0.00    +0.000 OA
ENDROOT
TORSDOF 0
REMARK  Name = ../refined-set-2016/3iod/3iod_pocket.pdb
REMARK  251 active torsions:
REMARK  status: ('A' for Active; 'I' for Inactive)
REMARK    1  A    between atoms: _1  and  _3
REMARK    2  A    between atoms: _3  and  _4
REMARK    3  A    between atoms: _3  and  _6
REMARK    4  A    between atoms: _6  and  _7
REMARK    5  A    between atoms: _10  and  _12
REMARK    6  A    between atoms: _12  and  _13
REMARK    7  A    between atoms: _12  and  _15
REMARK    8  A    between atoms: _19  and  _20
REMARK    9  A    between atoms: _25  and  _27
REMARK   10  A    between atoms: _27  and  _28
REMARK   11  A    between atoms: _27  and  _30
REMARK   12  A    between atoms: _30  and  _31
REMARK   13  A    between atoms: _34  and  _36
REMARK   14  A    between atoms: _36  and  _37
REMARK   15  A    between atoms: _36  and  _39
REMARK   16  A    between atoms: _39  and  _40
REMARK   17  A    between atoms: _40  and  _41
REMARK   18  A    between atoms: _43  and  _45
REMARK   19  A    between atoms: _45  and  _46
REMARK   20  A    between atoms: _48  and  _50
REMARK   21  A    between atoms: _50  and  _51
REMARK   22  A    between atoms: _54  and  _56
REMARK   23  A    between atoms: _56  and  _57
REMARK   24  A    between atoms: _56  and  _59
REMARK   25  A    between atoms: _59  and  _60
REMARK   26  A    between atoms: _63  and  _65
REMARK   27  A    between atoms: _65  and  _66
REMARK   28  A    between atoms: _65  and  _68
REMARK   29  A    between atoms: _68  and  _69
REMARK   30  A    between atoms: _74  and  _76
REMARK   31  A    between atoms: _76  and  _77
REMARK   32  A    between atoms: _76  and  _79
REMARK   33  A    between atoms: _79  and  _80
REMARK   34  A    between atoms: _80  and  _81
REMARK   35  A    between atoms: _84  and  _86
REMARK   36  A    between atoms: _86  and  _87
REMARK   37  A    between atoms: _89  and  _91
REMARK   38  A    between atoms: _91  and  _92
REMARK   39  A    between atoms: _91  and  _94
REMARK   40  A    between atoms: _94  and  _95
REMARK   41  A    between atoms: _100  and  _102
REMARK   42  A    between atoms: _102  and  _103
REMARK   43  A    between atoms: _102  and  _105
REMARK   44  A    between atoms: _105  and  _106
REMARK   45  A    between atoms: _109  and  _111
REMARK   46  A    between atoms: _111  and  _112
REMARK   47  A    between atoms: _115  and  _117
REMARK   48  A    between atoms: _117  and  _118
REMARK   49  A    between atoms: _117  and  _120
REMARK   50  A    between atoms: _120  and  _121
REMARK   51  A    between atoms: _124  and  _126
REMARK   52  A    between atoms: _126  and  _127
REMARK   53  A    between atoms: _126  and  _129
REMARK   54  A    between atoms: _132  and  _134
REMARK   55  A    between atoms: _134  and  _135
REMARK   56  A    between atoms: _134  and  _137
REMARK   57  A    between atoms: _140  and  _142
REMARK   58  A    between atoms: _142  and  _143
REMARK   59  A    between atoms: _142  and  _145
REMARK   60  A    between atoms: _145  and  _146
REMARK   61  A    between atoms: _148  and  _150
REMARK   62  A    between atoms: _150  and  _151
REMARK   63  A    between atoms: _150  and  _153
REMARK   64  A    between atoms: _153  and  _154
REMARK   65  A    between atoms: _157  and  _159
REMARK   66  A    between atoms: _159  and  _160
REMARK   67  A    between atoms: _159  and  _162
REMARK   68  A    between atoms: _162  and  _163
REMARK   69  A    between atoms: _169  and  _171
REMARK   70  A    between atoms: _171  and  _172
REMARK   71  A    between atoms: _171  and  _174
REMARK   72  A    between atoms: _177  and  _179
REMARK   73  A    between atoms: _179  and  _180
REMARK   74  A    between atoms: _179  and  _182
REMARK   75  A    between atoms: _182  and  _183
REMARK   76  A    between atoms: _189  and  _190
REMARK   77  A    between atoms: _195  and  _197
REMARK   78  A    between atoms: _197  and  _198
REMARK   79  A    between atoms: _197  and  _200
REMARK   80  A    between atoms: _200  and  _201
REMARK   81  A    between atoms: _201  and  _202
REMARK   82  A    between atoms: _204  and  _206
REMARK   83  A    between atoms: _206  and  _207
REMARK   84  A    between atoms: _206  and  _209
REMARK   85  A    between atoms: _209  and  _210
REMARK   86  A    between atoms: _210  and  _211
REMARK   87  A    between atoms: _216  and  _218
REMARK   88  A    between atoms: _218  and  _219
REMARK   89  A    between atoms: _218  and  _221
REMARK   90  A    between atoms: _221  and  _222
REMARK   91  A    between atoms: _228  and  _230
REMARK   92  A    between atoms: _230  and  _231
REMARK   93  A    between atoms: _230  and  _233
REMARK   94  A    between atoms: _233  and  _234
REMARK   95  A    between atoms: _239  and  _240
REMARK   96  A    between atoms: _242  and  _244
REMARK   97  A    between atoms: _244  and  _245
REMARK   98  A    between atoms: _244  and  _247
REMARK   99  A    between atoms: _247  and  _248
REMARK  100  A    between atoms: _255  and  _256
REMARK  101  A    between atoms: _261  and  _263
REMARK  102  A    between atoms: _263  and  _264
REMARK  103  A    between atoms: _263  and  _266
REMARK  104  A    between atoms: _266  and  _267
REMARK  105  A    between atoms: _267  and  _268
REMARK  106  A    between atoms: _270  and  _272
REMARK  107  A    between atoms: _272  and  _273
REMARK  108  A    between atoms: _272  and  _275
REMARK  109  A    between atoms: _275  and  _276
REMARK  110  A    between atoms: _281  and  _282
REMARK  111  A    between atoms: _284  and  _286
REMARK  112  A    between atoms: _286  and  _287
REMARK  113  A    between atoms: _286  and  _289
REMARK  114  A    between atoms: _289  and  _290
REMARK  115  A    between atoms: _295  and  _297
REMARK  116  A    between atoms: _297  and  _298
REMARK  117  A    between atoms: _297  and  _300
REMARK  118  A    between atoms: _300  and  _301
REMARK  119  A    between atoms: _307  and  _309
REMARK  120  A    between atoms: _309  and  _310
REMARK  121  A    between atoms: _312  and  _314
REMARK  122  A    between atoms: _314  and  _315
REMARK  123  A    between atoms: _314  and  _317
REMARK  124  A    between atoms: _320  and  _322
REMARK  125  A    between atoms: _322  and  _323
REMARK  126  A    between atoms: _322  and  _325
REMARK  127  A    between atoms: _325  and  _326
REMARK  128  A    between atoms: _329  and  _331
REMARK  129  A    between atoms: _331  and  _332
REMARK  130  A    between atoms: _331  and  _334
REMARK  131  A    between atoms: _334  and  _335
REMARK  132  A    between atoms: _338  and  _340
REMARK  133  A    between atoms: _340  and  _341
REMARK  134  A    between atoms: _340  and  _343
REMARK  135  A    between atoms: _346  and  _348
REMARK  136  A    between atoms: _348  and  _349
REMARK  137  A    between atoms: _348  and  _351
REMARK  138  A    between atoms: _354  and  _356
REMARK  139  A    between atoms: _356  and  _357
REMARK  140  A    between atoms: _356  and  _359
REMARK  141  A    between atoms: _359  and  _360
REMARK  142  A    between atoms: _363  and  _365
REMARK  143  A    between atoms: _365  and  _366
REMARK  144  A    between atoms: _365  and  _368
REMARK  145  A    between atoms: _368  and  _369
REMARK  146  A    between atoms: _375  and  _377
REMARK  147  A    between atoms: _377  and  _378
REMARK  148  A    between atoms: _377  and  _380
REMARK  149  A    between atoms: _380  and  _381
REMARK  150  A    between atoms: _387  and  _389
REMARK  151  A    between atoms: _389  and  _390
REMARK  152  A    between atoms: _392  and  _394
REMARK  153  A    between atoms: _394  and  _395
REMARK  154  A    between atoms: _394  and  _397
REMARK  155  A    between atoms: _397  and  _398
REMARK  156  A    between atoms: _398  and  _399
REMARK  157  A    between atoms: _402  and  _404
REMARK  158  A    between atoms: _404  and  _405
REMARK  159  A    between atoms: _404  and  _407
REMARK  160  A    between atoms: _407  and  _408
REMARK  161  A    between atoms: _408  and  _409
REMARK  162  A    between atoms: _409  and  _410
REMARK  163  A    between atoms: _410  and  _411
REMARK  164  A    between atoms: _415  and  _417
REMARK  165  A    between atoms: _417  and  _418
REMARK  166  A    between atoms: _417  and  _420
REMARK  167  A    between atoms: _420  and  _421
REMARK  168  A    between atoms: _424  and  _426
REMARK  169  A    between atoms: _426  and  _427
REMARK  170  A    between atoms: _426  and  _429
REMARK  171  A    between atoms: _429  and  _430
REMARK  172  A    between atoms: _435  and  _436
REMARK  173  A    between atoms: _438  and  _440
REMARK  174  A    between atoms: _440  and  _441
REMARK  175  A    between atoms: _440  and  _443
REMARK  176  A    between atoms: _443  and  _444
REMARK  177  A    between atoms: _444  and  _445
REMARK  178  A    between atoms: _450  and  _452
REMARK  179  A    between atoms: _452  and  _453
REMARK  180  A    between atoms: _452  and  _455
REMARK  181  A    between atoms: _455  and  _456
REMARK  182  A    between atoms: _459  and  _461
REMARK  183  A    between atoms: _461  and  _462
REMARK  184  A    between atoms: _461  and  _464
REMARK  185  A    between atoms: _464  and  _465
REMARK  186  A    between atoms: _468  and  _470
REMARK  187  A    between atoms: _470  and  _471
REMARK  188  A    between atoms: _470  and  _473
REMARK  189  A    between atoms: _476  and  _478
REMARK  190  A    between atoms: _478  and  _479
REMARK  191  A    between atoms: _478  and  _481
REMARK  192  A    between atoms: _485  and  _486
REMARK  193  A    between atoms: _491  and  _493
REMARK  194  A    between atoms: _493  and  _494
REMARK  195  A    between atoms: _493  and  _496
REMARK  196  A    between atoms: _496  and  _497
REMARK  197  A    between atoms: _500  and  _502
REMARK  198  A    between atoms: _502  and  _503
REMARK  199  A    between atoms: _502  and  _505
REMARK  200  A    between atoms: _508  and  _510
REMARK  201  A    between atoms: _510  and  _511
REMARK  202  A    between atoms: _510  and  _513
REMARK  203  A    between atoms: _513  and  _514
REMARK  204  A    between atoms: _514  and  _515
REMARK  205  A    between atoms: _515  and  _516
REMARK  206  A    between atoms: _525  and  _527
REMARK  207  A    between atoms: _527  and  _528
REMARK  208  A    between atoms: _527  and  _530
REMARK  209  A    between atoms: _530  and  _531
REMARK  210  A    between atoms: _531  and  _532
REMARK  211  A    between atoms: _535  and  _537
REMARK  212  A    between atoms: _537  and  _538
REMARK  213  A    between atoms: _537  and  _540
REMARK  214  A    between atoms: _540  and  _541
REMARK  215  A    between atoms: _544  and  _546
REMARK  216  A    between atoms: _546  and  _547
REMARK  217  A    between atoms: _550  and  _552
REMARK  218  A    between atoms: _552  and  _553
REMARK  219  A    between atoms: _552  and  _555
REMARK  220  A    between atoms: _555  and  _556
REMARK  221  A    between atoms: _556  and  _557
REMARK  222  A    between atoms: _559  and  _561
REMARK  223  A    between atoms: _561  and  _562
REMARK  224  A    between atoms: _561  and  _564
REMARK  225  A    between atoms: _564  and  _565
REMARK  226  A    between atoms: _567  and  _569
REMARK  227  A    between atoms: _569  and  _570
REMARK  228  A    between atoms: _569  and  _572
REMARK  229  A    between atoms: _572  and  _573
REMARK  230  A    between atoms: _575  and  _577
REMARK  231  A    between atoms: _577  and  _578
REMARK  232  A    between atoms: _577  and  _580
REMARK  233  A    between atoms: _580  and  _581
REMARK  234  A    between atoms: _581  and  _582
REMARK  235  A    between atoms: _582  and  _583
REMARK  236  A    between atoms: _592  and  _594
REMARK  237  A    between atoms: _594  and  _595
REMARK  238  A    between atoms: _594  and  _597
REMARK  239  A    between atoms: _597  and  _598
REMARK  240  A    between atoms: _603  and  _605
REMARK  241  A    between atoms: _605  and  _606
REMARK  242  A    between atoms: _605  and  _608
REMARK  243  A    between atoms: _608  and  _609
REMARK  244  A    between atoms: _612  and  _614
REMARK  245  A    between atoms: _614  and  _615
REMARK  246  A    between atoms: _614  and  _617
REMARK  247  A    between atoms: _617  and  _618
REMARK  248  A    between atoms: _621  and  _623
REMARK  249  A    between atoms: _623  and  _624
REMARK  250  A    between atoms: _623  and  _626
REMARK  251  A    between atoms: _626  and  _627
REMARK                            x       y       z     vdW  Elec       q    Type
REMARK                         _______ _______ _______ _____ _____    ______ ____
ROOT
ATOM      1  O   HOH     1      15.547   2.923  -7.334  0.00  0.00    +0.000 OA
ENDROOT
TORSDOF 0
REMARK  Name = ../refined-set-2016/3iod/3iod_pocket.pdb
REMARK  251 active torsions:
REMARK  status: ('A' for Active; 'I' for Inactive)
REMARK    1  A    between atoms: _1  and  _3
REMARK    2  A    between atoms: _3  and  _4
REMARK    3  A    between atoms: _3  and  _6
REMARK    4  A    between atoms: _6  and  _7
REMARK    5  A    between atoms: _10  and  _12
REMARK    6  A    between atoms: _12  and  _13
REMARK    7  A    between atoms: _12  and  _15
REMARK    8  A    between atoms: _19  and  _20
REMARK    9  A    between atoms: _25  and  _27
REMARK   10  A    between atoms: _27  and  _28
REMARK   11  A    between atoms: _27  and  _30
REMARK   12  A    between atoms: _30  and  _31
REMARK   13  A    between atoms: _34  and  _36
REMARK   14  A    between atoms: _36  and  _37
REMARK   15  A    between atoms: _36  and  _39
REMARK   16  A    between atoms: _39  and  _40
REMARK   17  A    between atoms: _40  and  _41
REMARK   18  A    between atoms: _43  and  _45
REMARK   19  A    between atoms: _45  and  _46
REMARK   20  A    between atoms: _48  and  _50
REMARK   21  A    between atoms: _50  and  _51
REMARK   22  A    between atoms: _54  and  _56
REMARK   23  A    between atoms: _56  and  _57
REMARK   24  A    between atoms: _56  and  _59
REMARK   25  A    between atoms: _59  and  _60
REMARK   26  A    between atoms: _63  and  _65
REMARK   27  A    between atoms: _65  and  _66
REMARK   28  A    between atoms: _65  and  _68
REMARK   29  A    between atoms: _68  and  _69
REMARK   30  A    between atoms: _74  and  _76
REMARK   31  A    between atoms: _76  and  _77
REMARK   32  A    between atoms: _76  and  _79
REMARK   33  A    between atoms: _79  and  _80
REMARK   34  A    between atoms: _80  and  _81
REMARK   35  A    between atoms: _84  and  _86
REMARK   36  A    between atoms: _86  and  _87
REMARK   37  A    between atoms: _89  and  _91
REMARK   38  A    between atoms: _91  and  _92
REMARK   39  A    between atoms: _91  and  _94
REMARK   40  A    between atoms: _94  and  _95
REMARK   41  A    between atoms: _100  and  _102
REMARK   42  A    between atoms: _102  and  _103
REMARK   43  A    between atoms: _102  and  _105
REMARK   44  A    between atoms: _105  and  _106
REMARK   45  A    between atoms: _109  and  _111
REMARK   46  A    between atoms: _111  and  _112
REMARK   47  A    between atoms: _115  and  _117
REMARK   48  A    between atoms: _117  and  _118
REMARK   49  A    between atoms: _117  and  _120
REMARK   50  A    between atoms: _120  and  _121
REMARK   51  A    between atoms: _124  and  _126
REMARK   52  A    between atoms: _126  and  _127
REMARK   53  A    between atoms: _126  and  _129
REMARK   54  A    between atoms: _132  and  _134
REMARK   55  A    between atoms: _134  and  _135
REMARK   56  A    between atoms: _134  and  _137
REMARK   57  A    between atoms: _140  and  _142
REMARK   58  A    between atoms: _142  and  _143
REMARK   59  A    between atoms: _142  and  _145
REMARK   60  A    between atoms: _145  and  _146
REMARK   61  A    between atoms: _148  and  _150
REMARK   62  A    between atoms: _150  and  _151
REMARK   63  A    between atoms: _150  and  _153
REMARK   64  A    between atoms: _153  and  _154
REMARK   65  A    between atoms: _157  and  _159
REMARK   66  A    between atoms: _159  and  _160
REMARK   67  A    between atoms: _159  and  _162
REMARK   68  A    between atoms: _162  and  _163
REMARK   69  A    between atoms: _169  and  _171
REMARK   70  A    between atoms: _171  and  _172
REMARK   71  A    between atoms: _171  and  _174
REMARK   72  A    between atoms: _177  and  _179
REMARK   73  A    between atoms: _179  and  _180
REMARK   74  A    between atoms: _179  and  _182
REMARK   75  A    between atoms: _182  and  _183
REMARK   76  A    between atoms: _189  and  _190
REMARK   77  A    between atoms: _195  and  _197
REMARK   78  A    between atoms: _197  and  _198
REMARK   79  A    between atoms: _197  and  _200
REMARK   80  A    between atoms: _200  and  _201
REMARK   81  A    between atoms: _201  and  _202
REMARK   82  A    between atoms: _204  and  _206
REMARK   83  A    between atoms: _206  and  _207
REMARK   84  A    between atoms: _206  and  _209
REMARK   85  A    between atoms: _209  and  _210
REMARK   86  A    between atoms: _210  and  _211
REMARK   87  A    between atoms: _216  and  _218
REMARK   88  A    between atoms: _218  and  _219
REMARK   89  A    between atoms: _218  and  _221
REMARK   90  A    between atoms: _221  and  _222
REMARK   91  A    between atoms: _228  and  _230
REMARK   92  A    between atoms: _230  and  _231
REMARK   93  A    between atoms: _230  and  _233
REMARK   94  A    between atoms: _233  and  _234
REMARK   95  A    between atoms: _239  and  _240
REMARK   96  A    between atoms: _242  and  _244
REMARK   97  A    between atoms: _244  and  _245
REMARK   98  A    between atoms: _244  and  _247
REMARK   99  A    between atoms: _247  and  _248
REMARK  100  A    between atoms: _255  and  _256
REMARK  101  A    between atoms: _261  and  _263
REMARK  102  A    between atoms: _263  and  _264
REMARK  103  A    between atoms: _263  and  _266
REMARK  104  A    between atoms: _266  and  _267
REMARK  105  A    between atoms: _267  and  _268
REMARK  106  A    between atoms: _270  and  _272
REMARK  107  A    between atoms: _272  and  _273
REMARK  108  A    between atoms: _272  and  _275
REMARK  109  A    between atoms: _275  and  _276
REMARK  110  A    between atoms: _281  and  _282
REMARK  111  A    between atoms: _284  and  _286
REMARK  112  A    between atoms: _286  and  _287
REMARK  113  A    between atoms: _286  and  _289
REMARK  114  A    between atoms: _289  and  _290
REMARK  115  A    between atoms: _295  and  _297
REMARK  116  A    between atoms: _297  and  _298
REMARK  117  A    between atoms: _297  and  _300
REMARK  118  A    between atoms: _300  and  _301
REMARK  119  A    between atoms: _307  and  _309
REMARK  120  A    between atoms: _309  and  _310
REMARK  121  A    between atoms: _312  and  _314
REMARK  122  A    between atoms: _314  and  _315
REMARK  123  A    between atoms: _314  and  _317
REMARK  124  A    between atoms: _320  and  _322
REMARK  125  A    between atoms: _322  and  _323
REMARK  126  A    between atoms: _322  and  _325
REMARK  127  A    between atoms: _325  and  _326
REMARK  128  A    between atoms: _329  and  _331
REMARK  129  A    between atoms: _331  and  _332
REMARK  130  A    between atoms: _331  and  _334
REMARK  131  A    between atoms: _334  and  _335
REMARK  132  A    between atoms: _338  and  _340
REMARK  133  A    between atoms: _340  and  _341
REMARK  134  A    between atoms: _340  and  _343
REMARK  135  A    between atoms: _346  and  _348
REMARK  136  A    between atoms: _348  and  _349
REMARK  137  A    between atoms: _348  and  _351
REMARK  138  A    between atoms: _354  and  _356
REMARK  139  A    between atoms: _356  and  _357
REMARK  140  A    between atoms: _356  and  _359
REMARK  141  A    between atoms: _359  and  _360
REMARK  142  A    between atoms: _363  and  _365
REMARK  143  A    between atoms: _365  and  _366
REMARK  144  A    between atoms: _365  and  _368
REMARK  145  A    between atoms: _368  and  _369
REMARK  146  A    between atoms: _375  and  _377
REMARK  147  A    between atoms: _377  and  _378
REMARK  148  A    between atoms: _377  and  _380
REMARK  149  A    between atoms: _380  and  _381
REMARK  150  A    between atoms: _387  and  _389
REMARK  151  A    between atoms: _389  and  _390
REMARK  152  A    between atoms: _392  and  _394
REMARK  153  A    between atoms: _394  and  _395
REMARK  154  A    between atoms: _394  and  _397
REMARK  155  A    between atoms: _397  and  _398
REMARK  156  A    between atoms: _398  and  _399
REMARK  157  A    between atoms: _402  and  _404
REMARK  158  A    between atoms: _404  and  _405
REMARK  159  A    between atoms: _404  and  _407
REMARK  160  A    between atoms: _407  and  _408
REMARK  161  A    between atoms: _408  and  _409
REMARK  162  A    between atoms: _409  and  _410
REMARK  163  A    between atoms: _410  and  _411
REMARK  164  A    between atoms: _415  and  _417
REMARK  165  A    between atoms: _417  and  _418
REMARK  166  A    between atoms: _417  and  _420
REMARK  167  A    between atoms: _420  and  _421
REMARK  168  A    between atoms: _424  and  _426
REMARK  169  A    between atoms: _426  and  _427
REMARK  170  A    between atoms: _426  and  _429
REMARK  171  A    between atoms: _429  and  _430
REMARK  172  A    between atoms: _435  and  _436
REMARK  173  A    between atoms: _438  and  _440
REMARK  174  A    between atoms: _440  and  _441
REMARK  175  A    between atoms: _440  and  _443
REMARK  176  A    between atoms: _443  and  _444
REMARK  177  A    between atoms: _444  and  _445
REMARK  178  A    between atoms: _450  and  _452
REMARK  179  A    between atoms: _452  and  _453
REMARK  180  A    between atoms: _452  and  _455
REMARK  181  A    between atoms: _455  and  _456
REMARK  182  A    between atoms: _459  and  _461
REMARK  183  A    between atoms: _461  and  _462
REMARK  184  A    between atoms: _461  and  _464
REMARK  185  A    between atoms: _464  and  _465
REMARK  186  A    between atoms: _468  and  _470
REMARK  187  A    between atoms: _470  and  _471
REMARK  188  A    between atoms: _470  and  _473
REMARK  189  A    between atoms: _476  and  _478
REMARK  190  A    between atoms: _478  and  _479
REMARK  191  A    between atoms: _478  and  _481
REMARK  192  A    between atoms: _485  and  _486
REMARK  193  A    between atoms: _491  and  _493
REMARK  194  A    between atoms: _493  and  _494
REMARK  195  A    between atoms: _493  and  _496
REMARK  196  A    between atoms: _496  and  _497
REMARK  197  A    between atoms: _500  and  _502
REMARK  198  A    between atoms: _502  and  _503
REMARK  199  A    between atoms: _502  and  _505
REMARK  200  A    between atoms: _508  and  _510
REMARK  201  A    between atoms: _510  and  _511
REMARK  202  A    between atoms: _510  and  _513
REMARK  203  A    between atoms: _513  and  _514
REMARK  204  A    between atoms: _514  and  _515
REMARK  205  A    between atoms: _515  and  _516
REMARK  206  A    between atoms: _525  and  _527
REMARK  207  A    between atoms: _527  and  _528
REMARK  208  A    between atoms: _527  and  _530
REMARK  209  A    between atoms: _530  and  _531
REMARK  210  A    between atoms: _531  and  _532
REMARK  211  A    between atoms: _535  and  _537
REMARK  212  A    between atoms: _537  and  _538
REMARK  213  A    between atoms: _537  and  _540
REMARK  214  A    between atoms: _540  and  _541
REMARK  215  A    between atoms: _544  and  _546
REMARK  216  A    between atoms: _546  and  _547
REMARK  217  A    between atoms: _550  and  _552
REMARK  218  A    between atoms: _552  and  _553
REMARK  219  A    between atoms: _552  and  _555
REMARK  220  A    between atoms: _555  and  _556
REMARK  221  A    between atoms: _556  and  _557
REMARK  222  A    between atoms: _559  and  _561
REMARK  223  A    between atoms: _561  and  _562
REMARK  224  A    between atoms: _561  and  _564
REMARK  225  A    between atoms: _564  and  _565
REMARK  226  A    between atoms: _567  and  _569
REMARK  227  A    between atoms: _569  and  _570
REMARK  228  A    between atoms: _569  and  _572
REMARK  229  A    between atoms: _572  and  _573
REMARK  230  A    between atoms: _575  and  _577
REMARK  231  A    between atoms: _577  and  _578
REMARK  232  A    between atoms: _577  and  _580
REMARK  233  A    between atoms: _580  and  _581
REMARK  234  A    between atoms: _581  and  _582
REMARK  235  A    between atoms: _582  and  _583
REMARK  236  A    between atoms: _592  and  _594
REMARK  237  A    between atoms: _594  and  _595
REMARK  238  A    between atoms: _594  and  _597
REMARK  239  A    between atoms: _597  and  _598
REMARK  240  A    between atoms: _603  and  _605
REMARK  241  A    between atoms: _605  and  _606
REMARK  242  A    between atoms: _605  and  _608
REMARK  243  A    between atoms: _608  and  _609
REMARK  244  A    between atoms: _612  and  _614
REMARK  245  A    between atoms: _614  and  _615
REMARK  246  A    between atoms: _614  and  _617
REMARK  247  A    between atoms: _617  and  _618
REMARK  248  A    between atoms: _621  and  _623
REMARK  249  A    between atoms: _623  and  _624
REMARK  250  A    between atoms: _623  and  _626
REMARK  251  A    between atoms: _626  and  _627
REMARK                            x       y       z     vdW  Elec       q    Type
REMARK                         _______ _______ _______ _____ _____    ______ ____
ROOT
ATOM      1  O   HOH     1      12.623  10.373 -12.760  0.00  0.00    +0.000 OA
ENDROOT
TORSDOF 0
REMARK  Name = ../refined-set-2016/3iod/3iod_pocket.pdb
REMARK  251 active torsions:
REMARK  status: ('A' for Active; 'I' for Inactive)
REMARK    1  A    between atoms: _1  and  _3
REMARK    2  A    between atoms: _3  and  _4
REMARK    3  A    between atoms: _3  and  _6
REMARK    4  A    between atoms: _6  and  _7
REMARK    5  A    between atoms: _10  and  _12
REMARK    6  A    between atoms: _12  and  _13
REMARK    7  A    between atoms: _12  and  _15
REMARK    8  A    between atoms: _19  and  _20
REMARK    9  A    between atoms: _25  and  _27
REMARK   10  A    between atoms: _27  and  _28
REMARK   11  A    between atoms: _27  and  _30
REMARK   12  A    between atoms: _30  and  _31
REMARK   13  A    between atoms: _34  and  _36
REMARK   14  A    between atoms: _36  and  _37
REMARK   15  A    between atoms: _36  and  _39
REMARK   16  A    between atoms: _39  and  _40
REMARK   17  A    between atoms: _40  and  _41
REMARK   18  A    between atoms: _43  and  _45
REMARK   19  A    between atoms: _45  and  _46
REMARK   20  A    between atoms: _48  and  _50
REMARK   21  A    between atoms: _50  and  _51
REMARK   22  A    between atoms: _54  and  _56
REMARK   23  A    between atoms: _56  and  _57
REMARK   24  A    between atoms: _56  and  _59
REMARK   25  A    between atoms: _59  and  _60
REMARK   26  A    between atoms: _63  and  _65
REMARK   27  A    between atoms: _65  and  _66
REMARK   28  A    between atoms: _65  and  _68
REMARK   29  A    between atoms: _68  and  _69
REMARK   30  A    between atoms: _74  and  _76
REMARK   31  A    between atoms: _76  and  _77
REMARK   32  A    between atoms: _76  and  _79
REMARK   33  A    between atoms: _79  and  _80
REMARK   34  A    between atoms: _80  and  _81
REMARK   35  A    between atoms: _84  and  _86
REMARK   36  A    between atoms: _86  and  _87
REMARK   37  A    between atoms: _89  and  _91
REMARK   38  A    between atoms: _91  and  _92
REMARK   39  A    between atoms: _91  and  _94
REMARK   40  A    between atoms: _94  and  _95
REMARK   41  A    between atoms: _100  and  _102
REMARK   42  A    between atoms: _102  and  _103
REMARK   43  A    between atoms: _102  and  _105
REMARK   44  A    between atoms: _105  and  _106
REMARK   45  A    between atoms: _109  and  _111
REMARK   46  A    between atoms: _111  and  _112
REMARK   47  A    between atoms: _115  and  _117
REMARK   48  A    between atoms: _117  and  _118
REMARK   49  A    between atoms: _117  and  _120
REMARK   50  A    between atoms: _120  and  _121
REMARK   51  A    between atoms: _124  and  _126
REMARK   52  A    between atoms: _126  and  _127
REMARK   53  A    between atoms: _126  and  _129
REMARK   54  A    between atoms: _132  and  _134
REMARK   55  A    between atoms: _134  and  _135
REMARK   56  A    between atoms: _134  and  _137
REMARK   57  A    between atoms: _140  and  _142
REMARK   58  A    between atoms: _142  and  _143
REMARK   59  A    between atoms: _142  and  _145
REMARK   60  A    between atoms: _145  and  _146
REMARK   61  A    between atoms: _148  and  _150
REMARK   62  A    between atoms: _150  and  _151
REMARK   63  A    between atoms: _150  and  _153
REMARK   64  A    between atoms: _153  and  _154
REMARK   65  A    between atoms: _157  and  _159
REMARK   66  A    between atoms: _159  and  _160
REMARK   67  A    between atoms: _159  and  _162
REMARK   68  A    between atoms: _162  and  _163
REMARK   69  A    between atoms: _169  and  _171
REMARK   70  A    between atoms: _171  and  _172
REMARK   71  A    between atoms: _171  and  _174
REMARK   72  A    between atoms: _177  and  _179
REMARK   73  A    between atoms: _179  and  _180
REMARK   74  A    between atoms: _179  and  _182
REMARK   75  A    between atoms: _182  and  _183
REMARK   76  A    between atoms: _189  and  _190
REMARK   77  A    between atoms: _195  and  _197
REMARK   78  A    between atoms: _197  and  _198
REMARK   79  A    between atoms: _197  and  _200
REMARK   80  A    between atoms: _200  and  _201
REMARK   81  A    between atoms: _201  and  _202
REMARK   82  A    between atoms: _204  and  _206
REMARK   83  A    between atoms: _206  and  _207
REMARK   84  A    between atoms: _206  and  _209
REMARK   85  A    between atoms: _209  and  _210
REMARK   86  A    between atoms: _210  and  _211
REMARK   87  A    between atoms: _216  and  _218
REMARK   88  A    between atoms: _218  and  _219
REMARK   89  A    between atoms: _218  and  _221
REMARK   90  A    between atoms: _221  and  _222
REMARK   91  A    between atoms: _228  and  _230
REMARK   92  A    between atoms: _230  and  _231
REMARK   93  A    between atoms: _230  and  _233
REMARK   94  A    between atoms: _233  and  _234
REMARK   95  A    between atoms: _239  and  _240
REMARK   96  A    between atoms: _242  and  _244
REMARK   97  A    between atoms: _244  and  _245
REMARK   98  A    between atoms: _244  and  _247
REMARK   99  A    between atoms: _247  and  _248
REMARK  100  A    between atoms: _255  and  _256
REMARK  101  A    between atoms: _261  and  _263
REMARK  102  A    between atoms: _263  and  _264
REMARK  103  A    between atoms: _263  and  _266
REMARK  104  A    between atoms: _266  and  _267
REMARK  105  A    between atoms: _267  and  _268
REMARK  106  A    between atoms: _270  and  _272
REMARK  107  A    between atoms: _272  and  _273
REMARK  108  A    between atoms: _272  and  _275
REMARK  109  A    between atoms: _275  and  _276
REMARK  110  A    between atoms: _281  and  _282
REMARK  111  A    between atoms: _284  and  _286
REMARK  112  A    between atoms: _286  and  _287
REMARK  113  A    between atoms: _286  and  _289
REMARK  114  A    between atoms: _289  and  _290
REMARK  115  A    between atoms: _295  and  _297
REMARK  116  A    between atoms: _297  and  _298
REMARK  117  A    between atoms: _297  and  _300
REMARK  118  A    between atoms: _300  and  _301
REMARK  119  A    between atoms: _307  and  _309
REMARK  120  A    between atoms: _309  and  _310
REMARK  121  A    between atoms: _312  and  _314
REMARK  122  A    between atoms: _314  and  _315
REMARK  123  A    between atoms: _314  and  _317
REMARK  124  A    between atoms: _320  and  _322
REMARK  125  A    between atoms: _322  and  _323
REMARK  126  A    between atoms: _322  and  _325
REMARK  127  A    between atoms: _325  and  _326
REMARK  128  A    between atoms: _329  and  _331
REMARK  129  A    between atoms: _331  and  _332
REMARK  130  A    between atoms: _331  and  _334
REMARK  131  A    between atoms: _334  and  _335
REMARK  132  A    between atoms: _338  and  _340
REMARK  133  A    between atoms: _340  and  _341
REMARK  134  A    between atoms: _340  and  _343
REMARK  135  A    between atoms: _346  and  _348
REMARK  136  A    between atoms: _348  and  _349
REMARK  137  A    between atoms: _348  and  _351
REMARK  138  A    between atoms: _354  and  _356
REMARK  139  A    between atoms: _356  and  _357
REMARK  140  A    between atoms: _356  and  _359
REMARK  141  A    between atoms: _359  and  _360
REMARK  142  A    between atoms: _363  and  _365
REMARK  143  A    between atoms: _365  and  _366
REMARK  144  A    between atoms: _365  and  _368
REMARK  145  A    between atoms: _368  and  _369
REMARK  146  A    between atoms: _375  and  _377
REMARK  147  A    between atoms: _377  and  _378
REMARK  148  A    between atoms: _377  and  _380
REMARK  149  A    between atoms: _380  and  _381
REMARK  150  A    between atoms: _387  and  _389
REMARK  151  A    between atoms: _389  and  _390
REMARK  152  A    between atoms: _392  and  _394
REMARK  153  A    between atoms: _394  and  _395
REMARK  154  A    between atoms: _394  and  _397
REMARK  155  A    between atoms: _397  and  _398
REMARK  156  A    between atoms: _398  and  _399
REMARK  157  A    between atoms: _402  and  _404
REMARK  158  A    between atoms: _404  and  _405
REMARK  159  A    between atoms: _404  and  _407
REMARK  160  A    between atoms: _407  and  _408
REMARK  161  A    between atoms: _408  and  _409
REMARK  162  A    between atoms: _409  and  _410
REMARK  163  A    between atoms: _410  and  _411
REMARK  164  A    between atoms: _415  and  _417
REMARK  165  A    between atoms: _417  and  _418
REMARK  166  A    between atoms: _417  and  _420
REMARK  167  A    between atoms: _420  and  _421
REMARK  168  A    between atoms: _424  and  _426
REMARK  169  A    between atoms: _426  and  _427
REMARK  170  A    between atoms: _426  and  _429
REMARK  171  A    between atoms: _429  and  _430
REMARK  172  A    between atoms: _435  and  _436
REMARK  173  A    between atoms: _438  and  _440
REMARK  174  A    between atoms: _440  and  _441
REMARK  175  A    between atoms: _440  and  _443
REMARK  176  A    between atoms: _443  and  _444
REMARK  177  A    between atoms: _444  and  _445
REMARK  178  A    between atoms: _450  and  _452
REMARK  179  A    between atoms: _452  and  _453
REMARK  180  A    between atoms: _452  and  _455
REMARK  181  A    between atoms: _455  and  _456
REMARK  182  A    between atoms: _459  and  _461
REMARK  183  A    between atoms: _461  and  _462
REMARK  184  A    between atoms: _461  and  _464
REMARK  185  A    between atoms: _464  and  _465
REMARK  186  A    between atoms: _468  and  _470
REMARK  187  A    between atoms: _470  and  _471
REMARK  188  A    between atoms: _470  and  _473
REMARK  189  A    between atoms: _476  and  _478
REMARK  190  A    between atoms: _478  and  _479
REMARK  191  A    between atoms: _478  and  _481
REMARK  192  A    between atoms: _485  and  _486
REMARK  193  A    between atoms: _491  and  _493
REMARK  194  A    between atoms: _493  and  _494
REMARK  195  A    between atoms: _493  and  _496
REMARK  196  A    between atoms: _496  and  _497
REMARK  197  A    between atoms: _500  and  _502
REMARK  198  A    between atoms: _502  and  _503
REMARK  199  A    between atoms: _502  and  _505
REMARK  200  A    between atoms: _508  and  _510
REMARK  201  A    between atoms: _510  and  _511
REMARK  202  A    between atoms: _510  and  _513
REMARK  203  A    between atoms: _513  and  _514
REMARK  204  A    between atoms: _514  and  _515
REMARK  205  A    between atoms: _515  and  _516
REMARK  206  A    between atoms: _525  and  _527
REMARK  207  A    between atoms: _527  and  _528
REMARK  208  A    between atoms: _527  and  _530
REMARK  209  A    between atoms: _530  and  _531
REMARK  210  A    between atoms: _531  and  _532
REMARK  211  A    between atoms: _535  and  _537
REMARK  212  A    between atoms: _537  and  _538
REMARK  213  A    between atoms: _537  and  _540
REMARK  214  A    between atoms: _540  and  _541
REMARK  215  A    between atoms: _544  and  _546
REMARK  216  A    between atoms: _546  and  _547
REMARK  217  A    between atoms: _550  and  _552
REMARK  218  A    between atoms: _552  and  _553
REMARK  219  A    between atoms: _552  and  _555
REMARK  220  A    between atoms: _555  and  _556
REMARK  221  A    between atoms: _556  and  _557
REMARK  222  A    between atoms: _559  and  _561
REMARK  223  A    between atoms: _561  and  _562
REMARK  224  A    between atoms: _561  and  _564
REMARK  225  A    between atoms: _564  and  _565
REMARK  226  A    between atoms: _567  and  _569
REMARK  227  A    between atoms: _569  and  _570
REMARK  228  A    between atoms: _569  and  _572
REMARK  229  A    between atoms: _572  and  _573
REMARK  230  A    between atoms: _575  and  _577
REMARK  231  A    between atoms: _577  and  _578
REMARK  232  A    between atoms: _577  and  _580
REMARK  233  A    between atoms: _580  and  _581
REMARK  234  A    between atoms: _581  and  _582
REMARK  235  A    between atoms: _582  and  _583
REMARK  236  A    between atoms: _592  and  _594
REMARK  237  A    between atoms: _594  and  _595
REMARK  238  A    between atoms: _594  and  _597
REMARK  239  A    between atoms: _597  and  _598
REMARK  240  A    between atoms: _603  and  _605
REMARK  241  A    between atoms: _605  and  _606
REMARK  242  A    between atoms: _605  and  _608
REMARK  243  A    between atoms: _608  and  _609
REMARK  244  A    between atoms: _612  and  _614
REMARK  245  A    between atoms: _614  and  _615
REMARK  246  A    between atoms: _614  and  _617
REMARK  247  A    between atoms: _617  and  _618
REMARK  248  A    between atoms: _621  and  _623
REMARK  249  A    between atoms: _623  and  _624
REMARK  250  A    between atoms: _623  and  _626
REMARK  251  A    between atoms: _626  and  _627
REMARK                            x       y       z     vdW  Elec       q    Type
REMARK                         _______ _______ _______ _____ _____    ______ ____
ROOT
ATOM      1  O   HOH     1       5.842   9.177  -8.369  0.00  0.00    +0.000 OA
ENDROOT
TORSDOF 0
REMARK  Name = ../refined-set-2016/3iod/3iod_pocket.pdb
REMARK  251 active torsions:
REMARK  status: ('A' for Active; 'I' for Inactive)
REMARK    1  A    between atoms: _1  and  _3
REMARK    2  A    between atoms: _3  and  _4
REMARK    3  A    between atoms: _3  and  _6
REMARK    4  A    between atoms: _6  and  _7
REMARK    5  A    between atoms: _10  and  _12
REMARK    6  A    between atoms: _12  and  _13
REMARK    7  A    between atoms: _12  and  _15
REMARK    8  A    between atoms: _19  and  _20
REMARK    9  A    between atoms: _25  and  _27
REMARK   10  A    between atoms: _27  and  _28
REMARK   11  A    between atoms: _27  and  _30
REMARK   12  A    between atoms: _30  and  _31
REMARK   13  A    between atoms: _34  and  _36
REMARK   14  A    between atoms: _36  and  _37
REMARK   15  A    between atoms: _36  and  _39
REMARK   16  A    between atoms: _39  and  _40
REMARK   17  A    between atoms: _40  and  _41
REMARK   18  A    between atoms: _43  and  _45
REMARK   19  A    between atoms: _45  and  _46
REMARK   20  A    between atoms: _48  and  _50
REMARK   21  A    between atoms: _50  and  _51
REMARK   22  A    between atoms: _54  and  _56
REMARK   23  A    between atoms: _56  and  _57
REMARK   24  A    between atoms: _56  and  _59
REMARK   25  A    between atoms: _59  and  _60
REMARK   26  A    between atoms: _63  and  _65
REMARK   27  A    between atoms: _65  and  _66
REMARK   28  A    between atoms: _65  and  _68
REMARK   29  A    between atoms: _68  and  _69
REMARK   30  A    between atoms: _74  and  _76
REMARK   31  A    between atoms: _76  and  _77
REMARK   32  A    between atoms: _76  and  _79
REMARK   33  A    between atoms: _79  and  _80
REMARK   34  A    between atoms: _80  and  _81
REMARK   35  A    between atoms: _84  and  _86
REMARK   36  A    between atoms: _86  and  _87
REMARK   37  A    between atoms: _89  and  _91
REMARK   38  A    between atoms: _91  and  _92
REMARK   39  A    between atoms: _91  and  _94
REMARK   40  A    between atoms: _94  and  _95
REMARK   41  A    between atoms: _100  and  _102
REMARK   42  A    between atoms: _102  and  _103
REMARK   43  A    between atoms: _102  and  _105
REMARK   44  A    between atoms: _105  and  _106
REMARK   45  A    between atoms: _109  and  _111
REMARK   46  A    between atoms: _111  and  _112
REMARK   47  A    between atoms: _115  and  _117
REMARK   48  A    between atoms: _117  and  _118
REMARK   49  A    between atoms: _117  and  _120
REMARK   50  A    between atoms: _120  and  _121
REMARK   51  A    between atoms: _124  and  _126
REMARK   52  A    between atoms: _126  and  _127
REMARK   53  A    between atoms: _126  and  _129
REMARK   54  A    between atoms: _132  and  _134
REMARK   55  A    between atoms: _134  and  _135
REMARK   56  A    between atoms: _134  and  _137
REMARK   57  A    between atoms: _140  and  _142
REMARK   58  A    between atoms: _142  and  _143
REMARK   59  A    between atoms: _142  and  _145
REMARK   60  A    between atoms: _145  and  _146
REMARK   61  A    between atoms: _148  and  _150
REMARK   62  A    between atoms: _150  and  _151
REMARK   63  A    between atoms: _150  and  _153
REMARK   64  A    between atoms: _153  and  _154
REMARK   65  A    between atoms: _157  and  _159
REMARK   66  A    between atoms: _159  and  _160
REMARK   67  A    between atoms: _159  and  _162
REMARK   68  A    between atoms: _162  and  _163
REMARK   69  A    between atoms: _169  and  _171
REMARK   70  A    between atoms: _171  and  _172
REMARK   71  A    between atoms: _171  and  _174
REMARK   72  A    between atoms: _177  and  _179
REMARK   73  A    between atoms: _179  and  _180
REMARK   74  A    between atoms: _179  and  _182
REMARK   75  A    between atoms: _182  and  _183
REMARK   76  A    between atoms: _189  and  _190
REMARK   77  A    between atoms: _195  and  _197
REMARK   78  A    between atoms: _197  and  _198
REMARK   79  A    between atoms: _197  and  _200
REMARK   80  A    between atoms: _200  and  _201
REMARK   81  A    between atoms: _201  and  _202
REMARK   82  A    between atoms: _204  and  _206
REMARK   83  A    between atoms: _206  and  _207
REMARK   84  A    between atoms: _206  and  _209
REMARK   85  A    between atoms: _209  and  _210
REMARK   86  A    between atoms: _210  and  _211
REMARK   87  A    between atoms: _216  and  _218
REMARK   88  A    between atoms: _218  and  _219
REMARK   89  A    between atoms: _218  and  _221
REMARK   90  A    between atoms: _221  and  _222
REMARK   91  A    between atoms: _228  and  _230
REMARK   92  A    between atoms: _230  and  _231
REMARK   93  A    between atoms: _230  and  _233
REMARK   94  A    between atoms: _233  and  _234
REMARK   95  A    between atoms: _239  and  _240
REMARK   96  A    between atoms: _242  and  _244
REMARK   97  A    between atoms: _244  and  _245
REMARK   98  A    between atoms: _244  and  _247
REMARK   99  A    between atoms: _247  and  _248
REMARK  100  A    between atoms: _255  and  _256
REMARK  101  A    between atoms: _261  and  _263
REMARK  102  A    between atoms: _263  and  _264
REMARK  103  A    between atoms: _263  and  _266
REMARK  104  A    between atoms: _266  and  _267
REMARK  105  A    between atoms: _267  and  _268
REMARK  106  A    between atoms: _270  and  _272
REMARK  107  A    between atoms: _272  and  _273
REMARK  108  A    between atoms: _272  and  _275
REMARK  109  A    between atoms: _275  and  _276
REMARK  110  A    between atoms: _281  and  _282
REMARK  111  A    between atoms: _284  and  _286
REMARK  112  A    between atoms: _286  and  _287
REMARK  113  A    between atoms: _286  and  _289
REMARK  114  A    between atoms: _289  and  _290
REMARK  115  A    between atoms: _295  and  _297
REMARK  116  A    between atoms: _297  and  _298
REMARK  117  A    between atoms: _297  and  _300
REMARK  118  A    between atoms: _300  and  _301
REMARK  119  A    between atoms: _307  and  _309
REMARK  120  A    between atoms: _309  and  _310
REMARK  121  A    between atoms: _312  and  _314
REMARK  122  A    between atoms: _314  and  _315
REMARK  123  A    between atoms: _314  and  _317
REMARK  124  A    between atoms: _320  and  _322
REMARK  125  A    between atoms: _322  and  _323
REMARK  126  A    between atoms: _322  and  _325
REMARK  127  A    between atoms: _325  and  _326
REMARK  128  A    between atoms: _329  and  _331
REMARK  129  A    between atoms: _331  and  _332
REMARK  130  A    between atoms: _331  and  _334
REMARK  131  A    between atoms: _334  and  _335
REMARK  132  A    between atoms: _338  and  _340
REMARK  133  A    between atoms: _340  and  _341
REMARK  134  A    between atoms: _340  and  _343
REMARK  135  A    between atoms: _346  and  _348
REMARK  136  A    between atoms: _348  and  _349
REMARK  137  A    between atoms: _348  and  _351
REMARK  138  A    between atoms: _354  and  _356
REMARK  139  A    between atoms: _356  and  _357
REMARK  140  A    between atoms: _356  and  _359
REMARK  141  A    between atoms: _359  and  _360
REMARK  142  A    between atoms: _363  and  _365
REMARK  143  A    between atoms: _365  and  _366
REMARK  144  A    between atoms: _365  and  _368
REMARK  145  A    between atoms: _368  and  _369
REMARK  146  A    between atoms: _375  and  _377
REMARK  147  A    between atoms: _377  and  _378
REMARK  148  A    between atoms: _377  and  _380
REMARK  149  A    between atoms: _380  and  _381
REMARK  150  A    between atoms: _387  and  _389
REMARK  151  A    between atoms: _389  and  _390
REMARK  152  A    between atoms: _392  and  _394
REMARK  153  A    between atoms: _394  and  _395
REMARK  154  A    between atoms: _394  and  _397
REMARK  155  A    between atoms: _397  and  _398
REMARK  156  A    between atoms: _398  and  _399
REMARK  157  A    between atoms: _402  and  _404
REMARK  158  A    between atoms: _404  and  _405
REMARK  159  A    between atoms: _404  and  _407
REMARK  160  A    between atoms: _407  and  _408
REMARK  161  A    between atoms: _408  and  _409
REMARK  162  A    between atoms: _409  and  _410
REMARK  163  A    between atoms: _410  and  _411
REMARK  164  A    between atoms: _415  and  _417
REMARK  165  A    between atoms: _417  and  _418
REMARK  166  A    between atoms: _417  and  _420
REMARK  167  A    between atoms: _420  and  _421
REMARK  168  A    between atoms: _424  and  _426
REMARK  169  A    between atoms: _426  and  _427
REMARK  170  A    between atoms: _426  and  _429
REMARK  171  A    between atoms: _429  and  _430
REMARK  172  A    between atoms: _435  and  _436
REMARK  173  A    between atoms: _438  and  _440
REMARK  174  A    between atoms: _440  and  _441
REMARK  175  A    between atoms: _440  and  _443
REMARK  176  A    between atoms: _443  and  _444
REMARK  177  A    between atoms: _444  and  _445
REMARK  178  A    between atoms: _450  and  _452
REMARK  179  A    between atoms: _452  and  _453
REMARK  180  A    between atoms: _452  and  _455
REMARK  181  A    between atoms: _455  and  _456
REMARK  182  A    between atoms: _459  and  _461
REMARK  183  A    between atoms: _461  and  _462
REMARK  184  A    between atoms: _461  and  _464
REMARK  185  A    between atoms: _464  and  _465
REMARK  186  A    between atoms: _468  and  _470
REMARK  187  A    between atoms: _470  and  _471
REMARK  188  A    between atoms: _470  and  _473
REMARK  189  A    between atoms: _476  and  _478
REMARK  190  A    between atoms: _478  and  _479
REMARK  191  A    between atoms: _478  and  _481
REMARK  192  A    between atoms: _485  and  _486
REMARK  193  A    between atoms: _491  and  _493
REMARK  194  A    between atoms: _493  and  _494
REMARK  195  A    between atoms: _493  and  _496
REMARK  196  A    between atoms: _496  and  _497
REMARK  197  A    between atoms: _500  and  _502
REMARK  198  A    between atoms: _502  and  _503
REMARK  199  A    between atoms: _502  and  _505
REMARK  200  A    between atoms: _508  and  _510
REMARK  201  A    between atoms: _510  and  _511
REMARK  202  A    between atoms: _510  and  _513
REMARK  203  A    between atoms: _513  and  _514
REMARK  204  A    between atoms: _514  and  _515
REMARK  205  A    between atoms: _515  and  _516
REMARK  206  A    between atoms: _525  and  _527
REMARK  207  A    between atoms: _527  and  _528
REMARK  208  A    between atoms: _527  and  _530
REMARK  209  A    between atoms: _530  and  _531
REMARK  210  A    between atoms: _531  and  _532
REMARK  211  A    between atoms: _535  and  _537
REMARK  212  A    between atoms: _537  and  _538
REMARK  213  A    between atoms: _537  and  _540
REMARK  214  A    between atoms: _540  and  _541
REMARK  215  A    between atoms: _544  and  _546
REMARK  216  A    between atoms: _546  and  _547
REMARK  217  A    between atoms: _550  and  _552
REMARK  218  A    between atoms: _552  and  _553
REMARK  219  A    between atoms: _552  and  _555
REMARK  220  A    between atoms: _555  and  _556
REMARK  221  A    between atoms: _556  and  _557
REMARK  222  A    between atoms: _559  and  _561
REMARK  223  A    between atoms: _561  and  _562
REMARK  224  A    between atoms: _561  and  _564
REMARK  225  A    between atoms: _564  and  _565
REMARK  226  A    between atoms: _567  and  _569
REMARK  227  A    between atoms: _569  and  _570
REMARK  228  A    between atoms: _569  and  _572
REMARK  229  A    between atoms: _572  and  _573
REMARK  230  A    between atoms: _575  and  _577
REMARK  231  A    between atoms: _577  and  _578
REMARK  232  A    between atoms: _577  and  _580
REMARK  233  A    between atoms: _580  and  _581
REMARK  234  A    between atoms: _581  and  _582
REMARK  235  A    between atoms: _582  and  _583
REMARK  236  A    between atoms: _592  and  _594
REMARK  237  A    between atoms: _594  and  _595
REMARK  238  A    between atoms: _594  and  _597
REMARK  239  A    between atoms: _597  and  _598
REMARK  240  A    between atoms: _603  and  _605
REMARK  241  A    between atoms: _605  and  _606
REMARK  242  A    between atoms: _605  and  _608
REMARK  243  A    between atoms: _608  and  _609
REMARK  244  A    between atoms: _612  and  _614
REMARK  245  A    between atoms: _614  and  _615
REMARK  246  A    between atoms: _614  and  _617
REMARK  247  A    between atoms: _617  and  _618
REMARK  248  A    between atoms: _621  and  _623
REMARK  249  A    between atoms: _623  and  _624
REMARK  250  A    between atoms: _623  and  _626
REMARK  251  A    between atoms: _626  and  _627
REMARK                            x       y       z     vdW  Elec       q    Type
REMARK                         _______ _______ _______ _____ _____    ______ ____
ROOT
ATOM      1  O   HOH     1      19.335  15.744  -6.629  0.00  0.00    +0.000 OA
ENDROOT
TORSDOF 0
REMARK  Name = ../refined-set-2016/3iod/3iod_pocket.pdb
REMARK  251 active torsions:
REMARK  status: ('A' for Active; 'I' for Inactive)
REMARK    1  A    between atoms: _1  and  _3
REMARK    2  A    between atoms: _3  and  _4
REMARK    3  A    between atoms: _3  and  _6
REMARK    4  A    between atoms: _6  and  _7
REMARK    5  A    between atoms: _10  and  _12
REMARK    6  A    between atoms: _12  and  _13
REMARK    7  A    between atoms: _12  and  _15
REMARK    8  A    between atoms: _19  and  _20
REMARK    9  A    between atoms: _25  and  _27
REMARK   10  A    between atoms: _27  and  _28
REMARK   11  A    between atoms: _27  and  _30
REMARK   12  A    between atoms: _30  and  _31
REMARK   13  A    between atoms: _34  and  _36
REMARK   14  A    between atoms: _36  and  _37
REMARK   15  A    between atoms: _36  and  _39
REMARK   16  A    between atoms: _39  and  _40
REMARK   17  A    between atoms: _40  and  _41
REMARK   18  A    between atoms: _43  and  _45
REMARK   19  A    between atoms: _45  and  _46
REMARK   20  A    between atoms: _48  and  _50
REMARK   21  A    between atoms: _50  and  _51
REMARK   22  A    between atoms: _54  and  _56
REMARK   23  A    between atoms: _56  and  _57
REMARK   24  A    between atoms: _56  and  _59
REMARK   25  A    between atoms: _59  and  _60
REMARK   26  A    between atoms: _63  and  _65
REMARK   27  A    between atoms: _65  and  _66
REMARK   28  A    between atoms: _65  and  _68
REMARK   29  A    between atoms: _68  and  _69
REMARK   30  A    between atoms: _74  and  _76
REMARK   31  A    between atoms: _76  and  _77
REMARK   32  A    between atoms: _76  and  _79
REMARK   33  A    between atoms: _79  and  _80
REMARK   34  A    between atoms: _80  and  _81
REMARK   35  A    between atoms: _84  and  _86
REMARK   36  A    between atoms: _86  and  _87
REMARK   37  A    between atoms: _89  and  _91
REMARK   38  A    between atoms: _91  and  _92
REMARK   39  A    between atoms: _91  and  _94
REMARK   40  A    between atoms: _94  and  _95
REMARK   41  A    between atoms: _100  and  _102
REMARK   42  A    between atoms: _102  and  _103
REMARK   43  A    between atoms: _102  and  _105
REMARK   44  A    between atoms: _105  and  _106
REMARK   45  A    between atoms: _109  and  _111
REMARK   46  A    between atoms: _111  and  _112
REMARK   47  A    between atoms: _115  and  _117
REMARK   48  A    between atoms: _117  and  _118
REMARK   49  A    between atoms: _117  and  _120
REMARK   50  A    between atoms: _120  and  _121
REMARK   51  A    between atoms: _124  and  _126
REMARK   52  A    between atoms: _126  and  _127
REMARK   53  A    between atoms: _126  and  _129
REMARK   54  A    between atoms: _132  and  _134
REMARK   55  A    between atoms: _134  and  _135
REMARK   56  A    between atoms: _134  and  _137
REMARK   57  A    between atoms: _140  and  _142
REMARK   58  A    between atoms: _142  and  _143
REMARK   59  A    between atoms: _142  and  _145
REMARK   60  A    between atoms: _145  and  _146
REMARK   61  A    between atoms: _148  and  _150
REMARK   62  A    between atoms: _150  and  _151
REMARK   63  A    between atoms: _150  and  _153
REMARK   64  A    between atoms: _153  and  _154
REMARK   65  A    between atoms: _157  and  _159
REMARK   66  A    between atoms: _159  and  _160
REMARK   67  A    between atoms: _159  and  _162
REMARK   68  A    between atoms: _162  and  _163
REMARK   69  A    between atoms: _169  and  _171
REMARK   70  A    between atoms: _171  and  _172
REMARK   71  A    between atoms: _171  and  _174
REMARK   72  A    between atoms: _177  and  _179
REMARK   73  A    between atoms: _179  and  _180
REMARK   74  A    between atoms: _179  and  _182
REMARK   75  A    between atoms: _182  and  _183
REMARK   76  A    between atoms: _189  and  _190
REMARK   77  A    between atoms: _195  and  _197
REMARK   78  A    between atoms: _197  and  _198
REMARK   79  A    between atoms: _197  and  _200
REMARK   80  A    between atoms: _200  and  _201
REMARK   81  A    between atoms: _201  and  _202
REMARK   82  A    between atoms: _204  and  _206
REMARK   83  A    between atoms: _206  and  _207
REMARK   84  A    between atoms: _206  and  _209
REMARK   85  A    between atoms: _209  and  _210
REMARK   86  A    between atoms: _210  and  _211
REMARK   87  A    between atoms: _216  and  _218
REMARK   88  A    between atoms: _218  and  _219
REMARK   89  A    between atoms: _218  and  _221
REMARK   90  A    between atoms: _221  and  _222
REMARK   91  A    between atoms: _228  and  _230
REMARK   92  A    between atoms: _230  and  _231
REMARK   93  A    between atoms: _230  and  _233
REMARK   94  A    between atoms: _233  and  _234
REMARK   95  A    between atoms: _239  and  _240
REMARK   96  A    between atoms: _242  and  _244
REMARK   97  A    between atoms: _244  and  _245
REMARK   98  A    between atoms: _244  and  _247
REMARK   99  A    between atoms: _247  and  _248
REMARK  100  A    between atoms: _255  and  _256
REMARK  101  A    between atoms: _261  and  _263
REMARK  102  A    between atoms: _263  and  _264
REMARK  103  A    between atoms: _263  and  _266
REMARK  104  A    between atoms: _266  and  _267
REMARK  105  A    between atoms: _267  and  _268
REMARK  106  A    between atoms: _270  and  _272
REMARK  107  A    between atoms: _272  and  _273
REMARK  108  A    between atoms: _272  and  _275
REMARK  109  A    between atoms: _275  and  _276
REMARK  110  A    between atoms: _281  and  _282
REMARK  111  A    between atoms: _284  and  _286
REMARK  112  A    between atoms: _286  and  _287
REMARK  113  A    between atoms: _286  and  _289
REMARK  114  A    between atoms: _289  and  _290
REMARK  115  A    between atoms: _295  and  _297
REMARK  116  A    between atoms: _297  and  _298
REMARK  117  A    between atoms: _297  and  _300
REMARK  118  A    between atoms: _300  and  _301
REMARK  119  A    between atoms: _307  and  _309
REMARK  120  A    between atoms: _309  and  _310
REMARK  121  A    between atoms: _312  and  _314
REMARK  122  A    between atoms: _314  and  _315
REMARK  123  A    between atoms: _314  and  _317
REMARK  124  A    between atoms: _320  and  _322
REMARK  125  A    between atoms: _322  and  _323
REMARK  126  A    between atoms: _322  and  _325
REMARK  127  A    between atoms: _325  and  _326
REMARK  128  A    between atoms: _329  and  _331
REMARK  129  A    between atoms: _331  and  _332
REMARK  130  A    between atoms: _331  and  _334
REMARK  131  A    between atoms: _334  and  _335
REMARK  132  A    between atoms: _338  and  _340
REMARK  133  A    between atoms: _340  and  _341
REMARK  134  A    between atoms: _340  and  _343
REMARK  135  A    between atoms: _346  and  _348
REMARK  136  A    between atoms: _348  and  _349
REMARK  137  A    between atoms: _348  and  _351
REMARK  138  A    between atoms: _354  and  _356
REMARK  139  A    between atoms: _356  and  _357
REMARK  140  A    between atoms: _356  and  _359
REMARK  141  A    between atoms: _359  and  _360
REMARK  142  A    between atoms: _363  and  _365
REMARK  143  A    between atoms: _365  and  _366
REMARK  144  A    between atoms: _365  and  _368
REMARK  145  A    between atoms: _368  and  _369
REMARK  146  A    between atoms: _375  and  _377
REMARK  147  A    between atoms: _377  and  _378
REMARK  148  A    between atoms: _377  and  _380
REMARK  149  A    between atoms: _380  and  _381
REMARK  150  A    between atoms: _387  and  _389
REMARK  151  A    between atoms: _389  and  _390
REMARK  152  A    between atoms: _392  and  _394
REMARK  153  A    between atoms: _394  and  _395
REMARK  154  A    between atoms: _394  and  _397
REMARK  155  A    between atoms: _397  and  _398
REMARK  156  A    between atoms: _398  and  _399
REMARK  157  A    between atoms: _402  and  _404
REMARK  158  A    between atoms: _404  and  _405
REMARK  159  A    between atoms: _404  and  _407
REMARK  160  A    between atoms: _407  and  _408
REMARK  161  A    between atoms: _408  and  _409
REMARK  162  A    between atoms: _409  and  _410
REMARK  163  A    between atoms: _410  and  _411
REMARK  164  A    between atoms: _415  and  _417
REMARK  165  A    between atoms: _417  and  _418
REMARK  166  A    between atoms: _417  and  _420
REMARK  167  A    between atoms: _420  and  _421
REMARK  168  A    between atoms: _424  and  _426
REMARK  169  A    between atoms: _426  and  _427
REMARK  170  A    between atoms: _426  and  _429
REMARK  171  A    between atoms: _429  and  _430
REMARK  172  A    between atoms: _435  and  _436
REMARK  173  A    between atoms: _438  and  _440
REMARK  174  A    between atoms: _440  and  _441
REMARK  175  A    between atoms: _440  and  _443
REMARK  176  A    between atoms: _443  and  _444
REMARK  177  A    between atoms: _444  and  _445
REMARK  178  A    between atoms: _450  and  _452
REMARK  179  A    between atoms: _452  and  _453
REMARK  180  A    between atoms: _452  and  _455
REMARK  181  A    between atoms: _455  and  _456
REMARK  182  A    between atoms: _459  and  _461
REMARK  183  A    between atoms: _461  and  _462
REMARK  184  A    between atoms: _461  and  _464
REMARK  185  A    between atoms: _464  and  _465
REMARK  186  A    between atoms: _468  and  _470
REMARK  187  A    between atoms: _470  and  _471
REMARK  188  A    between atoms: _470  and  _473
REMARK  189  A    between atoms: _476  and  _478
REMARK  190  A    between atoms: _478  and  _479
REMARK  191  A    between atoms: _478  and  _481
REMARK  192  A    between atoms: _485  and  _486
REMARK  193  A    between atoms: _491  and  _493
REMARK  194  A    between atoms: _493  and  _494
REMARK  195  A    between atoms: _493  and  _496
REMARK  196  A    between atoms: _496  and  _497
REMARK  197  A    between atoms: _500  and  _502
REMARK  198  A    between atoms: _502  and  _503
REMARK  199  A    between atoms: _502  and  _505
REMARK  200  A    between atoms: _508  and  _510
REMARK  201  A    between atoms: _510  and  _511
REMARK  202  A    between atoms: _510  and  _513
REMARK  203  A    between atoms: _513  and  _514
REMARK  204  A    between atoms: _514  and  _515
REMARK  205  A    between atoms: _515  and  _516
REMARK  206  A    between atoms: _525  and  _527
REMARK  207  A    between atoms: _527  and  _528
REMARK  208  A    between atoms: _527  and  _530
REMARK  209  A    between atoms: _530  and  _531
REMARK  210  A    between atoms: _531  and  _532
REMARK  211  A    between atoms: _535  and  _537
REMARK  212  A    between atoms: _537  and  _538
REMARK  213  A    between atoms: _537  and  _540
REMARK  214  A    between atoms: _540  and  _541
REMARK  215  A    between atoms: _544  and  _546
REMARK  216  A    between atoms: _546  and  _547
REMARK  217  A    between atoms: _550  and  _552
REMARK  218  A    between atoms: _552  and  _553
REMARK  219  A    between atoms: _552  and  _555
REMARK  220  A    between atoms: _555  and  _556
REMARK  221  A    between atoms: _556  and  _557
REMARK  222  A    between atoms: _559  and  _561
REMARK  223  A    between atoms: _561  and  _562
REMARK  224  A    between atoms: _561  and  _564
REMARK  225  A    between atoms: _564  and  _565
REMARK  226  A    between atoms: _567  and  _569
REMARK  227  A    between atoms: _569  and  _570
REMARK  228  A    between atoms: _569  and  _572
REMARK  229  A    between atoms: _572  and  _573
REMARK  230  A    between atoms: _575  and  _577
REMARK  231  A    between atoms: _577  and  _578
REMARK  232  A    between atoms: _577  and  _580
REMARK  233  A    between atoms: _580  and  _581
REMARK  234  A    between atoms: _581  and  _582
REMARK  235  A    between atoms: _582  and  _583
REMARK  236  A    between atoms: _592  and  _594
REMARK  237  A    between atoms: _594  and  _595
REMARK  238  A    between atoms: _594  and  _597
REMARK  239  A    between atoms: _597  and  _598
REMARK  240  A    between atoms: _603  and  _605
REMARK  241  A    between atoms: _605  and  _606
REMARK  242  A    between atoms: _605  and  _608
REMARK  243  A    between atoms: _608  and  _609
REMARK  244  A    between atoms: _612  and  _614
REMARK  245  A    between atoms: _614  and  _615
REMARK  246  A    between atoms: _614  and  _617
REMARK  247  A    between atoms: _617  and  _618
REMARK  248  A    between atoms: _621  and  _623
REMARK  249  A    between atoms: _623  and  _624
REMARK  250  A    between atoms: _623  and  _626
REMARK  251  A    between atoms: _626  and  _627
REMARK                            x       y       z     vdW  Elec       q    Type
REMARK                         _______ _______ _______ _____ _____    ______ ____
ROOT
ATOM      1  O   HOH     1      15.827  14.415   3.374  0.00  0.00    +0.000 OA
ENDROOT
TORSDOF 0
