REMARK  Name = ../refined-set-2016/1c5y/1c5y_pocket.pdb
REMARK  150 active torsions:
REMARK  status: ('A' for Active; 'I' for Inactive)
REMARK    1  A    between atoms: _1  and  _3
REMARK    2  A    between atoms: _3  and  _4
REMARK    3  A    between atoms: _3  and  _6
REMARK    4  A    between atoms: _6  and  _7
REMARK    5  A    between atoms: _10  and  _12
REMARK    6  A    between atoms: _12  and  _13
REMARK    7  A    between atoms: _12  and  _15
REMARK    8  A    between atoms: _15  and  _16
REMARK    9  A    between atoms: _16  and  _34
REMARK   10  A    between atoms: _17  and  _19
REMARK   11  A    between atoms: _19  and  _20
REMARK   12  A    between atoms: _19  and  _22
REMARK   13  A    between atoms: _22  and  _23
REMARK   14  A    between atoms: _28  and  _30
REMARK   15  A    between atoms: _30  and  _31
REMARK   16  A    between atoms: _30  and  _33
REMARK   17  A    between atoms: _33  and  _34
REMARK   18  A    between atoms: _35  and  _37
REMARK   19  A    between atoms: _37  and  _38
REMARK   20  A    between atoms: _37  and  _40
REMARK   21  A    between atoms: _40  and  _41
REMARK   22  A    between atoms: _44  and  _46
REMARK   23  A    between atoms: _46  and  _47
REMARK   24  A    between atoms: _46  and  _49
REMARK   25  A    between atoms: _49  and  _50
REMARK   26  A    between atoms: _55  and  _57
REMARK   27  A    between atoms: _57  and  _58
REMARK   28  A    between atoms: _57  and  _60
REMARK   29  A    between atoms: _60  and  _61
REMARK   30  A    between atoms: _64  and  _66
REMARK   31  A    between atoms: _66  and  _67
REMARK   32  A    between atoms: _66  and  _69
REMARK   33  A    between atoms: _69  and  _70
REMARK   34  A    between atoms: _73  and  _75
REMARK   35  A    between atoms: _75  and  _76
REMARK   36  A    between atoms: _75  and  _78
REMARK   37  A    between atoms: _78  and  _79
REMARK   38  A    between atoms: _79  and  _80
REMARK   39  A    between atoms: _80  and  _81
REMARK   40  A    between atoms: _81  and  _82
REMARK   41  A    between atoms: _86  and  _88
REMARK   42  A    between atoms: _88  and  _89
REMARK   43  A    between atoms: _88  and  _91
REMARK   44  A    between atoms: _91  and  _92
REMARK   45  A    between atoms: _94  and  _96
REMARK   46  A    between atoms: _96  and  _97
REMARK   47  A    between atoms: _96  and  _99
REMARK   48  A    between atoms: _99  and  _100
REMARK   49  A    between atoms: _105  and  _106
REMARK   50  A    between atoms: _108  and  _110
REMARK   51  A    between atoms: _110  and  _111
REMARK   52  A    between atoms: _110  and  _113
REMARK   53  A    between atoms: _116  and  _118
REMARK   54  A    between atoms: _118  and  _119
REMARK   55  A    between atoms: _118  and  _121
REMARK   56  A    between atoms: _121  and  _122
REMARK   57  A    between atoms: _127  and  _128
REMARK   58  A    between atoms: _130  and  _132
REMARK   59  A    between atoms: _132  and  _133
REMARK   60  A    between atoms: _136  and  _138
REMARK   61  A    between atoms: _138  and  _139
REMARK   62  A    between atoms: _142  and  _144
REMARK   63  A    between atoms: _144  and  _145
REMARK   64  A    between atoms: _144  and  _147
REMARK   65  A    between atoms: _147  and  _148
REMARK   66  A    between atoms: _151  and  _153
REMARK   67  A    between atoms: _153  and  _154
REMARK   68  A    between atoms: _153  and  _156
REMARK   69  A    between atoms: _156  and  _157
REMARK   70  A    between atoms: _160  and  _162
REMARK   71  A    between atoms: _162  and  _163
REMARK   72  A    between atoms: _162  and  _165
REMARK   73  A    between atoms: _165  and  _166
REMARK   74  A    between atoms: _168  and  _170
REMARK   75  A    between atoms: _170  and  _171
REMARK   76  A    between atoms: _170  and  _173
REMARK   77  A    between atoms: _173  and  _174
REMARK   78  A    between atoms: _174  and  _293
REMARK   79  A    between atoms: _175  and  _177
REMARK   80  A    between atoms: _177  and  _178
REMARK   81  A    between atoms: _177  and  _180
REMARK   82  A    between atoms: _180  and  _181
REMARK   83  A    between atoms: _181  and  _182
REMARK   84  A    between atoms: _187  and  _189
REMARK   85  A    between atoms: _189  and  _190
REMARK   86  A    between atoms: _192  and  _194
REMARK   87  A    between atoms: _194  and  _195
REMARK   88  A    between atoms: _194  and  _197
REMARK   89  A    between atoms: _197  and  _198
REMARK   90  A    between atoms: _201  and  _203
REMARK   91  A    between atoms: _203  and  _204
REMARK   92  A    between atoms: _203  and  _206
REMARK   93  A    between atoms: _206  and  _207
REMARK   94  A    between atoms: _209  and  _211
REMARK   95  A    between atoms: _211  and  _212
REMARK   96  A    between atoms: _214  and  _216
REMARK   97  A    between atoms: _216  and  _217
REMARK   98  A    between atoms: _219  and  _221
REMARK   99  A    between atoms: _221  and  _222
REMARK  100  A    between atoms: _221  and  _224
REMARK  101  A    between atoms: _224  and  _225
REMARK  102  A    between atoms: _228  and  _230
REMARK  103  A    between atoms: _230  and  _231
REMARK  104  A    between atoms: _230  and  _233
REMARK  105  A    between atoms: _236  and  _238
REMARK  106  A    between atoms: _238  and  _239
REMARK  107  A    between atoms: _238  and  _241
REMARK  108  A    between atoms: _241  and  _242
REMARK  109  A    between atoms: _244  and  _246
REMARK  110  A    between atoms: _246  and  _247
REMARK  111  A    between atoms: _246  and  _249
REMARK  112  A    between atoms: _249  and  _250
REMARK  113  A    between atoms: _260  and  _262
REMARK  114  A    between atoms: _262  and  _263
REMARK  115  A    between atoms: _265  and  _267
REMARK  116  A    between atoms: _267  and  _268
REMARK  117  A    between atoms: _267  and  _270
REMARK  118  A    between atoms: _270  and  _271
REMARK  119  A    between atoms: _271  and  _272
REMARK  120  A    between atoms: _272  and  _273
REMARK  121  A    between atoms: _282  and  _284
REMARK  122  A    between atoms: _284  and  _285
REMARK  123  A    between atoms: _287  and  _289
REMARK  124  A    between atoms: _289  and  _290
REMARK  125  A    between atoms: _289  and  _292
REMARK  126  A    between atoms: _292  and  _293
REMARK  127  A    between atoms: _294  and  _296
REMARK  128  A    between atoms: _296  and  _297
REMARK  129  A    between atoms: _300  and  _302
REMARK  130  A    between atoms: _302  and  _303
REMARK  131  A    between atoms: _302  and  _305
REMARK  132  A    between atoms: _305  and  _306
REMARK  133  A    between atoms: _309  and  _311
REMARK  134  A    between atoms: _311  and  _312
REMARK  135  A    between atoms: _311  and  _314
REMARK  136  A    between atoms: _314  and  _315
REMARK  137  A    between atoms: _315  and  _316
REMARK  138  A    between atoms: _316  and  _317
REMARK  139  A    between atoms: _317  and  _318
REMARK  140  A    between atoms: _323  and  _324
REMARK  141  A    between atoms: _329  and  _331
REMARK  142  A    between atoms: _331  and  _332
REMARK  143  A    between atoms: _334  and  _336
REMARK  144  A    between atoms: _336  and  _337
REMARK  145  A    between atoms: _336  and  _339
REMARK  146  A    between atoms: _342  and  _344
REMARK  147  A    between atoms: _344  and  _345
REMARK  148  A    between atoms: _344  and  _347
REMARK  149  A    between atoms: _347  and  _348
REMARK  150  A    between atoms: _353  and  _354
REMARK                            x       y       z     vdW  Elec       q    Type
REMARK                         _______ _______ _______ _____ _____    ______ ____
ROOT
ATOM      1  CA  ILE A   1      15.309  -4.197  30.813  0.00  0.00    +0.133 C 
ENDROOT
BRANCH   1   2
ATOM      2  N   ILE A   1      15.410  -3.857  29.365  0.00  0.00    -0.239 NA
ATOM      3  H   ILE A   1      14.637  -4.124  28.723  0.00  0.00    +0.142 HD
ENDBRANCH   1   2
BRANCH   1   4
ATOM      4  CB  ILE A   1      13.881  -3.964  31.272  0.00  0.00    +0.023 C 
ATOM      5  CG2 ILE A   1      13.593  -4.568  32.685  0.00  0.00    +0.002 C 
BRANCH   4   6
ATOM      6  CG1 ILE A   1      13.709  -2.454  31.335  0.00  0.00    +0.002 C 
ATOM      7  CD1 ILE A   1      12.325  -2.139  30.939  0.00  0.00    +0.000 C 
ENDBRANCH   4   6
ENDBRANCH   1   4
BRANCH   1   8
ATOM      8  C   ILE A   1      15.666  -5.674  30.772  0.00  0.00    +0.224 C 
ATOM      9  O   ILE A   1      15.131  -6.358  29.921  0.00  0.00    -0.287 OA
ENDBRANCH   1   8
TORSDOF 4
REMARK  Name = ../refined-set-2016/1c5y/1c5y_pocket.pdb
REMARK  150 active torsions:
REMARK  status: ('A' for Active; 'I' for Inactive)
REMARK    1  A    between atoms: _1  and  _3
REMARK    2  A    between atoms: _3  and  _4
REMARK    3  A    between atoms: _3  and  _6
REMARK    4  A    between atoms: _6  and  _7
REMARK    5  A    between atoms: _10  and  _12
REMARK    6  A    between atoms: _12  and  _13
REMARK    7  A    between atoms: _12  and  _15
REMARK    8  A    between atoms: _15  and  _16
REMARK    9  A    between atoms: _16  and  _34
REMARK   10  A    between atoms: _17  and  _19
REMARK   11  A    between atoms: _19  and  _20
REMARK   12  A    between atoms: _19  and  _22
REMARK   13  A    between atoms: _22  and  _23
REMARK   14  A    between atoms: _28  and  _30
REMARK   15  A    between atoms: _30  and  _31
REMARK   16  A    between atoms: _30  and  _33
REMARK   17  A    between atoms: _33  and  _34
REMARK   18  A    between atoms: _35  and  _37
REMARK   19  A    between atoms: _37  and  _38
REMARK   20  A    between atoms: _37  and  _40
REMARK   21  A    between atoms: _40  and  _41
REMARK   22  A    between atoms: _44  and  _46
REMARK   23  A    between atoms: _46  and  _47
REMARK   24  A    between atoms: _46  and  _49
REMARK   25  A    between atoms: _49  and  _50
REMARK   26  A    between atoms: _55  and  _57
REMARK   27  A    between atoms: _57  and  _58
REMARK   28  A    between atoms: _57  and  _60
REMARK   29  A    between atoms: _60  and  _61
REMARK   30  A    between atoms: _64  and  _66
REMARK   31  A    between atoms: _66  and  _67
REMARK   32  A    between atoms: _66  and  _69
REMARK   33  A    between atoms: _69  and  _70
REMARK   34  A    between atoms: _73  and  _75
REMARK   35  A    between atoms: _75  and  _76
REMARK   36  A    between atoms: _75  and  _78
REMARK   37  A    between atoms: _78  and  _79
REMARK   38  A    between atoms: _79  and  _80
REMARK   39  A    between atoms: _80  and  _81
REMARK   40  A    between atoms: _81  and  _82
REMARK   41  A    between atoms: _86  and  _88
REMARK   42  A    between atoms: _88  and  _89
REMARK   43  A    between atoms: _88  and  _91
REMARK   44  A    between atoms: _91  and  _92
REMARK   45  A    between atoms: _94  and  _96
REMARK   46  A    between atoms: _96  and  _97
REMARK   47  A    between atoms: _96  and  _99
REMARK   48  A    between atoms: _99  and  _100
REMARK   49  A    between atoms: _105  and  _106
REMARK   50  A    between atoms: _108  and  _110
REMARK   51  A    between atoms: _110  and  _111
REMARK   52  A    between atoms: _110  and  _113
REMARK   53  A    between atoms: _116  and  _118
REMARK   54  A    between atoms: _118  and  _119
REMARK   55  A    between atoms: _118  and  _121
REMARK   56  A    between atoms: _121  and  _122
REMARK   57  A    between atoms: _127  and  _128
REMARK   58  A    between atoms: _130  and  _132
REMARK   59  A    between atoms: _132  and  _133
REMARK   60  A    between atoms: _136  and  _138
REMARK   61  A    between atoms: _138  and  _139
REMARK   62  A    between atoms: _142  and  _144
REMARK   63  A    between atoms: _144  and  _145
REMARK   64  A    between atoms: _144  and  _147
REMARK   65  A    between atoms: _147  and  _148
REMARK   66  A    between atoms: _151  and  _153
REMARK   67  A    between atoms: _153  and  _154
REMARK   68  A    between atoms: _153  and  _156
REMARK   69  A    between atoms: _156  and  _157
REMARK   70  A    between atoms: _160  and  _162
REMARK   71  A    between atoms: _162  and  _163
REMARK   72  A    between atoms: _162  and  _165
REMARK   73  A    between atoms: _165  and  _166
REMARK   74  A    between atoms: _168  and  _170
REMARK   75  A    between atoms: _170  and  _171
REMARK   76  A    between atoms: _170  and  _173
REMARK   77  A    between atoms: _173  and  _174
REMARK   78  A    between atoms: _174  and  _293
REMARK   79  A    between atoms: _175  and  _177
REMARK   80  A    between atoms: _177  and  _178
REMARK   81  A    between atoms: _177  and  _180
REMARK   82  A    between atoms: _180  and  _181
REMARK   83  A    between atoms: _181  and  _182
REMARK   84  A    between atoms: _187  and  _189
REMARK   85  A    between atoms: _189  and  _190
REMARK   86  A    between atoms: _192  and  _194
REMARK   87  A    between atoms: _194  and  _195
REMARK   88  A    between atoms: _194  and  _197
REMARK   89  A    between atoms: _197  and  _198
REMARK   90  A    between atoms: _201  and  _203
REMARK   91  A    between atoms: _203  and  _204
REMARK   92  A    between atoms: _203  and  _206
REMARK   93  A    between atoms: _206  and  _207
REMARK   94  A    between atoms: _209  and  _211
REMARK   95  A    between atoms: _211  and  _212
REMARK   96  A    between atoms: _214  and  _216
REMARK   97  A    between atoms: _216  and  _217
REMARK   98  A    between atoms: _219  and  _221
REMARK   99  A    between atoms: _221  and  _222
REMARK  100  A    between atoms: _221  and  _224
REMARK  101  A    between atoms: _224  and  _225
REMARK  102  A    between atoms: _228  and  _230
REMARK  103  A    between atoms: _230  and  _231
REMARK  104  A    between atoms: _230  and  _233
REMARK  105  A    between atoms: _236  and  _238
REMARK  106  A    between atoms: _238  and  _239
REMARK  107  A    between atoms: _238  and  _241
REMARK  108  A    between atoms: _241  and  _242
REMARK  109  A    between atoms: _244  and  _246
REMARK  110  A    between atoms: _246  and  _247
REMARK  111  A    between atoms: _246  and  _249
REMARK  112  A    between atoms: _249  and  _250
REMARK  113  A    between atoms: _260  and  _262
REMARK  114  A    between atoms: _262  and  _263
REMARK  115  A    between atoms: _265  and  _267
REMARK  116  A    between atoms: _267  and  _268
REMARK  117  A    between atoms: _267  and  _270
REMARK  118  A    between atoms: _270  and  _271
REMARK  119  A    between atoms: _271  and  _272
REMARK  120  A    between atoms: _272  and  _273
REMARK  121  A    between atoms: _282  and  _284
REMARK  122  A    between atoms: _284  and  _285
REMARK  123  A    between atoms: _287  and  _289
REMARK  124  A    between atoms: _289  and  _290
REMARK  125  A    between atoms: _289  and  _292
REMARK  126  A    between atoms: _292  and  _293
REMARK  127  A    between atoms: _294  and  _296
REMARK  128  A    between atoms: _296  and  _297
REMARK  129  A    between atoms: _300  and  _302
REMARK  130  A    between atoms: _302  and  _303
REMARK  131  A    between atoms: _302  and  _305
REMARK  132  A    between atoms: _305  and  _306
REMARK  133  A    between atoms: _309  and  _311
REMARK  134  A    between atoms: _311  and  _312
REMARK  135  A    between atoms: _311  and  _314
REMARK  136  A    between atoms: _314  and  _315
REMARK  137  A    between atoms: _315  and  _316
REMARK  138  A    between atoms: _316  and  _317
REMARK  139  A    between atoms: _317  and  _318
REMARK  140  A    between atoms: _323  and  _324
REMARK  141  A    between atoms: _329  and  _331
REMARK  142  A    between atoms: _331  and  _332
REMARK  143  A    between atoms: _334  and  _336
REMARK  144  A    between atoms: _336  and  _337
REMARK  145  A    between atoms: _336  and  _339
REMARK  146  A    between atoms: _342  and  _344
REMARK  147  A    between atoms: _344  and  _345
REMARK  148  A    between atoms: _344  and  _347
REMARK  149  A    between atoms: _347  and  _348
REMARK  150  A    between atoms: _353  and  _354
REMARK                            x       y       z     vdW  Elec       q    Type
REMARK                         _______ _______ _______ _____ _____    ______ ____
ROOT
ATOM      1  N   CYS A   2      11.441   9.265  16.002  0.00  0.00    -0.297 N 
ATOM      2  C   HIS A   1      10.411   9.892  16.477  0.00  0.00    +0.239 C 
ATOM      3  O   HIS A   1      10.520  10.772  17.305  0.00  0.00    -0.274 OA
ATOM      4  H   CYS A   2      11.324   8.519  15.287  0.00  0.00    +0.150 HD
ENDROOT
BRANCH   1   5
ATOM      5  CA  CYS A   2      12.792   9.631  16.498  0.00  0.00    +0.149 C 
BRANCH   5   6
ATOM      6  C   CYS A   2      13.267  10.974  15.874  0.00  0.00    +0.228 C 
ATOM      7  O   CYS A   2      14.022  11.721  16.472  0.00  0.00    -0.286 OA
ENDBRANCH   5   6
BRANCH   5   8
ATOM      8  CB  CYS A   2      13.782   8.509  16.114  0.00  0.00    +0.096 C 
BRANCH   8   9
ATOM      9  SG  CYS A   2      13.588   6.918  16.957  0.00  0.00    -0.080 S 
BRANCH   9  10
ATOM     10  SG  HIS A   1      14.957   7.087  18.422  0.00  0.00    -0.080 S 
BRANCH  10  11
ATOM     11  CB  HIS A   1      16.355   6.230  17.662  0.00  0.00    +0.094 C 
BRANCH  11  12
ATOM     12  CA  HIS A   1      17.641   6.019  18.484  0.00  0.00    +0.145 C 
BRANCH  12  13
ATOM     13  N   HIS A   1      18.340   7.330  18.602  0.00  0.00    -0.238 NA
ATOM     14  H   HIS A   1      19.051   7.589  17.888  0.00  0.00    +0.142 HD
ENDBRANCH  12  13
BRANCH  12  15
ATOM     15  C   HIS A   1      18.515   4.960  17.800  0.00  0.00    +0.225 C 
ATOM     16  O   HIS A   1      19.622   5.227  17.364  0.00  0.00    -0.287 OA
ENDBRANCH  12  15
ENDBRANCH  11  12
ENDBRANCH  10  11
ENDBRANCH   9  10
ENDBRANCH   8   9
ENDBRANCH   5   8
ENDBRANCH   1   5
BRANCH   2  17
ATOM     17  CA  HIS A   1       9.050   9.490  15.944  0.00  0.00    +0.151 C 
BRANCH  17  18
ATOM     18  N   HIS A   1       9.117   8.744  14.667  0.00  0.00    -0.238 NA
ATOM     19  H   HIS A   1       8.677   7.805  14.585  0.00  0.00    +0.142 HD
ENDBRANCH  17  18
BRANCH  17  20
ATOM     20  CB  HIS A   1       8.256   8.632  16.987  0.00  0.00    +0.074 C 
BRANCH  20  21
ATOM     21  CG  HIS A   1       9.006   7.658  17.899  0.00  0.00    +0.082 A 
ATOM     22  CD2 HIS A   1      10.100   7.920  18.708  0.00  0.00    +0.115 A 
ATOM     23  NE2 HIS A   1      10.366   6.824  19.365  0.00  0.00    -0.221 NA
ATOM     24  CE1 HIS A   1       9.527   5.919  19.011  0.00  0.00    +0.199 A 
ATOM     25  ND1 HIS A   1       8.709   6.407  18.138  0.00  0.00    -0.227 NA
ENDBRANCH  20  21
ENDBRANCH  17  20
ENDBRANCH   2  17
TORSDOF 13
REMARK  Name = ../refined-set-2016/1c5y/1c5y_pocket.pdb
REMARK  150 active torsions:
REMARK  status: ('A' for Active; 'I' for Inactive)
REMARK    1  A    between atoms: _1  and  _3
REMARK    2  A    between atoms: _3  and  _4
REMARK    3  A    between atoms: _3  and  _6
REMARK    4  A    between atoms: _6  and  _7
REMARK    5  A    between atoms: _10  and  _12
REMARK    6  A    between atoms: _12  and  _13
REMARK    7  A    between atoms: _12  and  _15
REMARK    8  A    between atoms: _15  and  _16
REMARK    9  A    between atoms: _16  and  _34
REMARK   10  A    between atoms: _17  and  _19
REMARK   11  A    between atoms: _19  and  _20
REMARK   12  A    between atoms: _19  and  _22
REMARK   13  A    between atoms: _22  and  _23
REMARK   14  A    between atoms: _28  and  _30
REMARK   15  A    between atoms: _30  and  _31
REMARK   16  A    between atoms: _30  and  _33
REMARK   17  A    between atoms: _33  and  _34
REMARK   18  A    between atoms: _35  and  _37
REMARK   19  A    between atoms: _37  and  _38
REMARK   20  A    between atoms: _37  and  _40
REMARK   21  A    between atoms: _40  and  _41
REMARK   22  A    between atoms: _44  and  _46
REMARK   23  A    between atoms: _46  and  _47
REMARK   24  A    between atoms: _46  and  _49
REMARK   25  A    between atoms: _49  and  _50
REMARK   26  A    between atoms: _55  and  _57
REMARK   27  A    between atoms: _57  and  _58
REMARK   28  A    between atoms: _57  and  _60
REMARK   29  A    between atoms: _60  and  _61
REMARK   30  A    between atoms: _64  and  _66
REMARK   31  A    between atoms: _66  and  _67
REMARK   32  A    between atoms: _66  and  _69
REMARK   33  A    between atoms: _69  and  _70
REMARK   34  A    between atoms: _73  and  _75
REMARK   35  A    between atoms: _75  and  _76
REMARK   36  A    between atoms: _75  and  _78
REMARK   37  A    between atoms: _78  and  _79
REMARK   38  A    between atoms: _79  and  _80
REMARK   39  A    between atoms: _80  and  _81
REMARK   40  A    between atoms: _81  and  _82
REMARK   41  A    between atoms: _86  and  _88
REMARK   42  A    between atoms: _88  and  _89
REMARK   43  A    between atoms: _88  and  _91
REMARK   44  A    between atoms: _91  and  _92
REMARK   45  A    between atoms: _94  and  _96
REMARK   46  A    between atoms: _96  and  _97
REMARK   47  A    between atoms: _96  and  _99
REMARK   48  A    between atoms: _99  and  _100
REMARK   49  A    between atoms: _105  and  _106
REMARK   50  A    between atoms: _108  and  _110
REMARK   51  A    between atoms: _110  and  _111
REMARK   52  A    between atoms: _110  and  _113
REMARK   53  A    between atoms: _116  and  _118
REMARK   54  A    between atoms: _118  and  _119
REMARK   55  A    between atoms: _118  and  _121
REMARK   56  A    between atoms: _121  and  _122
REMARK   57  A    between atoms: _127  and  _128
REMARK   58  A    between atoms: _130  and  _132
REMARK   59  A    between atoms: _132  and  _133
REMARK   60  A    between atoms: _136  and  _138
REMARK   61  A    between atoms: _138  and  _139
REMARK   62  A    between atoms: _142  and  _144
REMARK   63  A    between atoms: _144  and  _145
REMARK   64  A    between atoms: _144  and  _147
REMARK   65  A    between atoms: _147  and  _148
REMARK   66  A    between atoms: _151  and  _153
REMARK   67  A    between atoms: _153  and  _154
REMARK   68  A    between atoms: _153  and  _156
REMARK   69  A    between atoms: _156  and  _157
REMARK   70  A    between atoms: _160  and  _162
REMARK   71  A    between atoms: _162  and  _163
REMARK   72  A    between atoms: _162  and  _165
REMARK   73  A    between atoms: _165  and  _166
REMARK   74  A    between atoms: _168  and  _170
REMARK   75  A    between atoms: _170  and  _171
REMARK   76  A    between atoms: _170  and  _173
REMARK   77  A    between atoms: _173  and  _174
REMARK   78  A    between atoms: _174  and  _293
REMARK   79  A    between atoms: _175  and  _177
REMARK   80  A    between atoms: _177  and  _178
REMARK   81  A    between atoms: _177  and  _180
REMARK   82  A    between atoms: _180  and  _181
REMARK   83  A    between atoms: _181  and  _182
REMARK   84  A    between atoms: _187  and  _189
REMARK   85  A    between atoms: _189  and  _190
REMARK   86  A    between atoms: _192  and  _194
REMARK   87  A    between atoms: _194  and  _195
REMARK   88  A    between atoms: _194  and  _197
REMARK   89  A    between atoms: _197  and  _198
REMARK   90  A    between atoms: _201  and  _203
REMARK   91  A    between atoms: _203  and  _204
REMARK   92  A    between atoms: _203  and  _206
REMARK   93  A    between atoms: _206  and  _207
REMARK   94  A    between atoms: _209  and  _211
REMARK   95  A    between atoms: _211  and  _212
REMARK   96  A    between atoms: _214  and  _216
REMARK   97  A    between atoms: _216  and  _217
REMARK   98  A    between atoms: _219  and  _221
REMARK   99  A    between atoms: _221  and  _222
REMARK  100  A    between atoms: _221  and  _224
REMARK  101  A    between atoms: _224  and  _225
REMARK  102  A    between atoms: _228  and  _230
REMARK  103  A    between atoms: _230  and  _231
REMARK  104  A    between atoms: _230  and  _233
REMARK  105  A    between atoms: _236  and  _238
REMARK  106  A    between atoms: _238  and  _239
REMARK  107  A    between atoms: _238  and  _241
REMARK  108  A    between atoms: _241  and  _242
REMARK  109  A    between atoms: _244  and  _246
REMARK  110  A    between atoms: _246  and  _247
REMARK  111  A    between atoms: _246  and  _249
REMARK  112  A    between atoms: _249  and  _250
REMARK  113  A    between atoms: _260  and  _262
REMARK  114  A    between atoms: _262  and  _263
REMARK  115  A    between atoms: _265  and  _267
REMARK  116  A    between atoms: _267  and  _268
REMARK  117  A    between atoms: _267  and  _270
REMARK  118  A    between atoms: _270  and  _271
REMARK  119  A    between atoms: _271  and  _272
REMARK  120  A    between atoms: _272  and  _273
REMARK  121  A    between atoms: _282  and  _284
REMARK  122  A    between atoms: _284  and  _285
REMARK  123  A    between atoms: _287  and  _289
REMARK  124  A    between atoms: _289  and  _290
REMARK  125  A    between atoms: _289  and  _292
REMARK  126  A    between atoms: _292  and  _293
REMARK  127  A    between atoms: _294  and  _296
REMARK  128  A    between atoms: _296  and  _297
REMARK  129  A    between atoms: _300  and  _302
REMARK  130  A    between atoms: _302  and  _303
REMARK  131  A    between atoms: _302  and  _305
REMARK  132  A    between atoms: _305  and  _306
REMARK  133  A    between atoms: _309  and  _311
REMARK  134  A    between atoms: _311  and  _312
REMARK  135  A    between atoms: _311  and  _314
REMARK  136  A    between atoms: _314  and  _315
REMARK  137  A    between atoms: _315  and  _316
REMARK  138  A    between atoms: _316  and  _317
REMARK  139  A    between atoms: _317  and  _318
REMARK  140  A    between atoms: _323  and  _324
REMARK  141  A    between atoms: _329  and  _331
REMARK  142  A    between atoms: _331  and  _332
REMARK  143  A    between atoms: _334  and  _336
REMARK  144  A    between atoms: _336  and  _337
REMARK  145  A    between atoms: _336  and  _339
REMARK  146  A    between atoms: _342  and  _344
REMARK  147  A    between atoms: _344  and  _345
REMARK  148  A    between atoms: _344  and  _347
REMARK  149  A    between atoms: _347  and  _348
REMARK  150  A    between atoms: _353  and  _354
REMARK                            x       y       z     vdW  Elec       q    Type
REMARK                         _______ _______ _______ _____ _____    ______ ____
ROOT
ATOM      1  CA  LEU A   1       0.189   6.230  23.431  0.00  0.00    +0.133 C 
ENDROOT
BRANCH   1   2
ATOM      2  N   LEU A   1      -0.485   7.556  23.315  0.00  0.00    -0.239 NA
ATOM      3  H   LEU A   1      -0.179   8.193  22.552  0.00  0.00    +0.142 HD
ENDBRANCH   1   2
BRANCH   1   4
ATOM      4  C   LEU A   1       0.775   5.737  22.121  0.00  0.00    +0.224 C 
ATOM      5  O   LEU A   1       1.978   5.692  21.979  0.00  0.00    -0.287 OA
ENDBRANCH   1   4
BRANCH   1   6
ATOM      6  CB  LEU A   1      -0.760   5.062  23.899  0.00  0.00    +0.025 C 
BRANCH   6   7
ATOM      7  CG  LEU A   1      -0.519   4.700  25.380  0.00  0.00    +0.002 C 
ATOM      8  CD2 LEU A   1      -1.536   3.584  25.769  0.00  0.00    +0.000 C 
ATOM      9  CD1 LEU A   1       0.945   4.182  25.590  0.00  0.00    +0.000 C 
ENDBRANCH   6   7
ENDBRANCH   1   6
TORSDOF 4
REMARK  Name = ../refined-set-2016/1c5y/1c5y_pocket.pdb
REMARK  150 active torsions:
REMARK  status: ('A' for Active; 'I' for Inactive)
REMARK    1  A    between atoms: _1  and  _3
REMARK    2  A    between atoms: _3  and  _4
REMARK    3  A    between atoms: _3  and  _6
REMARK    4  A    between atoms: _6  and  _7
REMARK    5  A    between atoms: _10  and  _12
REMARK    6  A    between atoms: _12  and  _13
REMARK    7  A    between atoms: _12  and  _15
REMARK    8  A    between atoms: _15  and  _16
REMARK    9  A    between atoms: _16  and  _34
REMARK   10  A    between atoms: _17  and  _19
REMARK   11  A    between atoms: _19  and  _20
REMARK   12  A    between atoms: _19  and  _22
REMARK   13  A    between atoms: _22  and  _23
REMARK   14  A    between atoms: _28  and  _30
REMARK   15  A    between atoms: _30  and  _31
REMARK   16  A    between atoms: _30  and  _33
REMARK   17  A    between atoms: _33  and  _34
REMARK   18  A    between atoms: _35  and  _37
REMARK   19  A    between atoms: _37  and  _38
REMARK   20  A    between atoms: _37  and  _40
REMARK   21  A    between atoms: _40  and  _41
REMARK   22  A    between atoms: _44  and  _46
REMARK   23  A    between atoms: _46  and  _47
REMARK   24  A    between atoms: _46  and  _49
REMARK   25  A    between atoms: _49  and  _50
REMARK   26  A    between atoms: _55  and  _57
REMARK   27  A    between atoms: _57  and  _58
REMARK   28  A    between atoms: _57  and  _60
REMARK   29  A    between atoms: _60  and  _61
REMARK   30  A    between atoms: _64  and  _66
REMARK   31  A    between atoms: _66  and  _67
REMARK   32  A    between atoms: _66  and  _69
REMARK   33  A    between atoms: _69  and  _70
REMARK   34  A    between atoms: _73  and  _75
REMARK   35  A    between atoms: _75  and  _76
REMARK   36  A    between atoms: _75  and  _78
REMARK   37  A    between atoms: _78  and  _79
REMARK   38  A    between atoms: _79  and  _80
REMARK   39  A    between atoms: _80  and  _81
REMARK   40  A    between atoms: _81  and  _82
REMARK   41  A    between atoms: _86  and  _88
REMARK   42  A    between atoms: _88  and  _89
REMARK   43  A    between atoms: _88  and  _91
REMARK   44  A    between atoms: _91  and  _92
REMARK   45  A    between atoms: _94  and  _96
REMARK   46  A    between atoms: _96  and  _97
REMARK   47  A    between atoms: _96  and  _99
REMARK   48  A    between atoms: _99  and  _100
REMARK   49  A    between atoms: _105  and  _106
REMARK   50  A    between atoms: _108  and  _110
REMARK   51  A    between atoms: _110  and  _111
REMARK   52  A    between atoms: _110  and  _113
REMARK   53  A    between atoms: _116  and  _118
REMARK   54  A    between atoms: _118  and  _119
REMARK   55  A    between atoms: _118  and  _121
REMARK   56  A    between atoms: _121  and  _122
REMARK   57  A    between atoms: _127  and  _128
REMARK   58  A    between atoms: _130  and  _132
REMARK   59  A    between atoms: _132  and  _133
REMARK   60  A    between atoms: _136  and  _138
REMARK   61  A    between atoms: _138  and  _139
REMARK   62  A    between atoms: _142  and  _144
REMARK   63  A    between atoms: _144  and  _145
REMARK   64  A    between atoms: _144  and  _147
REMARK   65  A    between atoms: _147  and  _148
REMARK   66  A    between atoms: _151  and  _153
REMARK   67  A    between atoms: _153  and  _154
REMARK   68  A    between atoms: _153  and  _156
REMARK   69  A    between atoms: _156  and  _157
REMARK   70  A    between atoms: _160  and  _162
REMARK   71  A    between atoms: _162  and  _163
REMARK   72  A    between atoms: _162  and  _165
REMARK   73  A    between atoms: _165  and  _166
REMARK   74  A    between atoms: _168  and  _170
REMARK   75  A    between atoms: _170  and  _171
REMARK   76  A    between atoms: _170  and  _173
REMARK   77  A    between atoms: _173  and  _174
REMARK   78  A    between atoms: _174  and  _293
REMARK   79  A    between atoms: _175  and  _177
REMARK   80  A    between atoms: _177  and  _178
REMARK   81  A    between atoms: _177  and  _180
REMARK   82  A    between atoms: _180  and  _181
REMARK   83  A    between atoms: _181  and  _182
REMARK   84  A    between atoms: _187  and  _189
REMARK   85  A    between atoms: _189  and  _190
REMARK   86  A    between atoms: _192  and  _194
REMARK   87  A    between atoms: _194  and  _195
REMARK   88  A    between atoms: _194  and  _197
REMARK   89  A    between atoms: _197  and  _198
REMARK   90  A    between atoms: _201  and  _203
REMARK   91  A    between atoms: _203  and  _204
REMARK   92  A    between atoms: _203  and  _206
REMARK   93  A    between atoms: _206  and  _207
REMARK   94  A    between atoms: _209  and  _211
REMARK   95  A    between atoms: _211  and  _212
REMARK   96  A    between atoms: _214  and  _216
REMARK   97  A    between atoms: _216  and  _217
REMARK   98  A    between atoms: _219  and  _221
REMARK   99  A    between atoms: _221  and  _222
REMARK  100  A    between atoms: _221  and  _224
REMARK  101  A    between atoms: _224  and  _225
REMARK  102  A    between atoms: _228  and  _230
REMARK  103  A    between atoms: _230  and  _231
REMARK  104  A    between atoms: _230  and  _233
REMARK  105  A    between atoms: _236  and  _238
REMARK  106  A    between atoms: _238  and  _239
REMARK  107  A    between atoms: _238  and  _241
REMARK  108  A    between atoms: _241  and  _242
REMARK  109  A    between atoms: _244  and  _246
REMARK  110  A    between atoms: _246  and  _247
REMARK  111  A    between atoms: _246  and  _249
REMARK  112  A    between atoms: _249  and  _250
REMARK  113  A    between atoms: _260  and  _262
REMARK  114  A    between atoms: _262  and  _263
REMARK  115  A    between atoms: _265  and  _267
REMARK  116  A    between atoms: _267  and  _268
REMARK  117  A    between atoms: _267  and  _270
REMARK  118  A    between atoms: _270  and  _271
REMARK  119  A    between atoms: _271  and  _272
REMARK  120  A    between atoms: _272  and  _273
REMARK  121  A    between atoms: _282  and  _284
REMARK  122  A    between atoms: _284  and  _285
REMARK  123  A    between atoms: _287  and  _289
REMARK  124  A    between atoms: _289  and  _290
REMARK  125  A    between atoms: _289  and  _292
REMARK  126  A    between atoms: _292  and  _293
REMARK  127  A    between atoms: _294  and  _296
REMARK  128  A    between atoms: _296  and  _297
REMARK  129  A    between atoms: _300  and  _302
REMARK  130  A    between atoms: _302  and  _303
REMARK  131  A    between atoms: _302  and  _305
REMARK  132  A    between atoms: _305  and  _306
REMARK  133  A    between atoms: _309  and  _311
REMARK  134  A    between atoms: _311  and  _312
REMARK  135  A    between atoms: _311  and  _314
REMARK  136  A    between atoms: _314  and  _315
REMARK  137  A    between atoms: _315  and  _316
REMARK  138  A    between atoms: _316  and  _317
REMARK  139  A    between atoms: _317  and  _318
REMARK  140  A    between atoms: _323  and  _324
REMARK  141  A    between atoms: _329  and  _331
REMARK  142  A    between atoms: _331  and  _332
REMARK  143  A    between atoms: _334  and  _336
REMARK  144  A    between atoms: _336  and  _337
REMARK  145  A    between atoms: _336  and  _339
REMARK  146  A    between atoms: _342  and  _344
REMARK  147  A    between atoms: _344  and  _345
REMARK  148  A    between atoms: _344  and  _347
REMARK  149  A    between atoms: _347  and  _348
REMARK  150  A    between atoms: _353  and  _354
REMARK                            x       y       z     vdW  Elec       q    Type
REMARK                         _______ _______ _______ _____ _____    ______ ____
ROOT
ATOM      1  CB  HIS A   1       4.046   6.041  17.151  0.00  0.00    +0.072 C 
ENDROOT
BRANCH   1   2
ATOM      2  CG  HIS A   1       4.657   6.913  18.276  0.00  0.00    +0.082 A 
ATOM      3  CD2 HIS A   1       5.321   6.501  19.437  0.00  0.00    +0.115 A 
ATOM      4  NE2 HIS A   1       5.686   7.583  20.083  0.00  0.00    -0.221 NA
ATOM      5  CE1 HIS A   1       5.288   8.605  19.397  0.00  0.00    +0.199 A 
ATOM      6  ND1 HIS A   1       4.675   8.224  18.317  0.00  0.00    -0.227 NA
ENDBRANCH   1   2
BRANCH   1   7
ATOM      7  CA  HIS A   1       2.505   6.154  17.024  0.00  0.00    +0.139 C 
BRANCH   7   8
ATOM      8  N   HIS A   1       1.841   5.404  18.104  0.00  0.00    -0.239 NA
ATOM      9  H   HIS A   1       2.040   4.386  18.183  0.00  0.00    +0.142 HD
ENDBRANCH   7   8
BRANCH   7  10
ATOM     10  C   HIS A   1       1.961   5.289  15.875  0.00  0.00    +0.224 C 
ATOM     11  O   HIS A   1       1.959   4.081  16.020  0.00  0.00    -0.287 OA
ENDBRANCH   7  10
ENDBRANCH   1   7
TORSDOF 4
REMARK  Name = ../refined-set-2016/1c5y/1c5y_pocket.pdb
REMARK  150 active torsions:
REMARK  status: ('A' for Active; 'I' for Inactive)
REMARK    1  A    between atoms: _1  and  _3
REMARK    2  A    between atoms: _3  and  _4
REMARK    3  A    between atoms: _3  and  _6
REMARK    4  A    between atoms: _6  and  _7
REMARK    5  A    between atoms: _10  and  _12
REMARK    6  A    between atoms: _12  and  _13
REMARK    7  A    between atoms: _12  and  _15
REMARK    8  A    between atoms: _15  and  _16
REMARK    9  A    between atoms: _16  and  _34
REMARK   10  A    between atoms: _17  and  _19
REMARK   11  A    between atoms: _19  and  _20
REMARK   12  A    between atoms: _19  and  _22
REMARK   13  A    between atoms: _22  and  _23
REMARK   14  A    between atoms: _28  and  _30
REMARK   15  A    between atoms: _30  and  _31
REMARK   16  A    between atoms: _30  and  _33
REMARK   17  A    between atoms: _33  and  _34
REMARK   18  A    between atoms: _35  and  _37
REMARK   19  A    between atoms: _37  and  _38
REMARK   20  A    between atoms: _37  and  _40
REMARK   21  A    between atoms: _40  and  _41
REMARK   22  A    between atoms: _44  and  _46
REMARK   23  A    between atoms: _46  and  _47
REMARK   24  A    between atoms: _46  and  _49
REMARK   25  A    between atoms: _49  and  _50
REMARK   26  A    between atoms: _55  and  _57
REMARK   27  A    between atoms: _57  and  _58
REMARK   28  A    between atoms: _57  and  _60
REMARK   29  A    between atoms: _60  and  _61
REMARK   30  A    between atoms: _64  and  _66
REMARK   31  A    between atoms: _66  and  _67
REMARK   32  A    between atoms: _66  and  _69
REMARK   33  A    between atoms: _69  and  _70
REMARK   34  A    between atoms: _73  and  _75
REMARK   35  A    between atoms: _75  and  _76
REMARK   36  A    between atoms: _75  and  _78
REMARK   37  A    between atoms: _78  and  _79
REMARK   38  A    between atoms: _79  and  _80
REMARK   39  A    between atoms: _80  and  _81
REMARK   40  A    between atoms: _81  and  _82
REMARK   41  A    between atoms: _86  and  _88
REMARK   42  A    between atoms: _88  and  _89
REMARK   43  A    between atoms: _88  and  _91
REMARK   44  A    between atoms: _91  and  _92
REMARK   45  A    between atoms: _94  and  _96
REMARK   46  A    between atoms: _96  and  _97
REMARK   47  A    between atoms: _96  and  _99
REMARK   48  A    between atoms: _99  and  _100
REMARK   49  A    between atoms: _105  and  _106
REMARK   50  A    between atoms: _108  and  _110
REMARK   51  A    between atoms: _110  and  _111
REMARK   52  A    between atoms: _110  and  _113
REMARK   53  A    between atoms: _116  and  _118
REMARK   54  A    between atoms: _118  and  _119
REMARK   55  A    between atoms: _118  and  _121
REMARK   56  A    between atoms: _121  and  _122
REMARK   57  A    between atoms: _127  and  _128
REMARK   58  A    between atoms: _130  and  _132
REMARK   59  A    between atoms: _132  and  _133
REMARK   60  A    between atoms: _136  and  _138
REMARK   61  A    between atoms: _138  and  _139
REMARK   62  A    between atoms: _142  and  _144
REMARK   63  A    between atoms: _144  and  _145
REMARK   64  A    between atoms: _144  and  _147
REMARK   65  A    between atoms: _147  and  _148
REMARK   66  A    between atoms: _151  and  _153
REMARK   67  A    between atoms: _153  and  _154
REMARK   68  A    between atoms: _153  and  _156
REMARK   69  A    between atoms: _156  and  _157
REMARK   70  A    between atoms: _160  and  _162
REMARK   71  A    between atoms: _162  and  _163
REMARK   72  A    between atoms: _162  and  _165
REMARK   73  A    between atoms: _165  and  _166
REMARK   74  A    between atoms: _168  and  _170
REMARK   75  A    between atoms: _170  and  _171
REMARK   76  A    between atoms: _170  and  _173
REMARK   77  A    between atoms: _173  and  _174
REMARK   78  A    between atoms: _174  and  _293
REMARK   79  A    between atoms: _175  and  _177
REMARK   80  A    between atoms: _177  and  _178
REMARK   81  A    between atoms: _177  and  _180
REMARK   82  A    between atoms: _180  and  _181
REMARK   83  A    between atoms: _181  and  _182
REMARK   84  A    between atoms: _187  and  _189
REMARK   85  A    between atoms: _189  and  _190
REMARK   86  A    between atoms: _192  and  _194
REMARK   87  A    between atoms: _194  and  _195
REMARK   88  A    between atoms: _194  and  _197
REMARK   89  A    between atoms: _197  and  _198
REMARK   90  A    between atoms: _201  and  _203
REMARK   91  A    between atoms: _203  and  _204
REMARK   92  A    between atoms: _203  and  _206
REMARK   93  A    between atoms: _206  and  _207
REMARK   94  A    between atoms: _209  and  _211
REMARK   95  A    between atoms: _211  and  _212
REMARK   96  A    between atoms: _214  and  _216
REMARK   97  A    between atoms: _216  and  _217
REMARK   98  A    between atoms: _219  and  _221
REMARK   99  A    between atoms: _221  and  _222
REMARK  100  A    between atoms: _221  and  _224
REMARK  101  A    between atoms: _224  and  _225
REMARK  102  A    between atoms: _228  and  _230
REMARK  103  A    between atoms: _230  and  _231
REMARK  104  A    between atoms: _230  and  _233
REMARK  105  A    between atoms: _236  and  _238
REMARK  106  A    between atoms: _238  and  _239
REMARK  107  A    between atoms: _238  and  _241
REMARK  108  A    between atoms: _241  and  _242
REMARK  109  A    between atoms: _244  and  _246
REMARK  110  A    between atoms: _246  and  _247
REMARK  111  A    between atoms: _246  and  _249
REMARK  112  A    between atoms: _249  and  _250
REMARK  113  A    between atoms: _260  and  _262
REMARK  114  A    between atoms: _262  and  _263
REMARK  115  A    between atoms: _265  and  _267
REMARK  116  A    between atoms: _267  and  _268
REMARK  117  A    between atoms: _267  and  _270
REMARK  118  A    between atoms: _270  and  _271
REMARK  119  A    between atoms: _271  and  _272
REMARK  120  A    between atoms: _272  and  _273
REMARK  121  A    between atoms: _282  and  _284
REMARK  122  A    between atoms: _284  and  _285
REMARK  123  A    between atoms: _287  and  _289
REMARK  124  A    between atoms: _289  and  _290
REMARK  125  A    between atoms: _289  and  _292
REMARK  126  A    between atoms: _292  and  _293
REMARK  127  A    between atoms: _294  and  _296
REMARK  128  A    between atoms: _296  and  _297
REMARK  129  A    between atoms: _300  and  _302
REMARK  130  A    between atoms: _302  and  _303
REMARK  131  A    between atoms: _302  and  _305
REMARK  132  A    between atoms: _305  and  _306
REMARK  133  A    between atoms: _309  and  _311
REMARK  134  A    between atoms: _311  and  _312
REMARK  135  A    between atoms: _311  and  _314
REMARK  136  A    between atoms: _314  and  _315
REMARK  137  A    between atoms: _315  and  _316
REMARK  138  A    between atoms: _316  and  _317
REMARK  139  A    between atoms: _317  and  _318
REMARK  140  A    between atoms: _323  and  _324
REMARK  141  A    between atoms: _329  and  _331
REMARK  142  A    between atoms: _331  and  _332
REMARK  143  A    between atoms: _334  and  _336
REMARK  144  A    between atoms: _336  and  _337
REMARK  145  A    between atoms: _336  and  _339
REMARK  146  A    between atoms: _342  and  _344
REMARK  147  A    between atoms: _344  and  _345
REMARK  148  A    between atoms: _344  and  _347
REMARK  149  A    between atoms: _347  and  _348
REMARK  150  A    between atoms: _353  and  _354
REMARK                            x       y       z     vdW  Elec       q    Type
REMARK                         _______ _______ _______ _____ _____    ______ ____
ROOT
ATOM      1  CA  ASP A   1       6.190   4.860  12.690  0.00  0.00    +0.144 C 
ENDROOT
BRANCH   1   2
ATOM      2  N   ASP A   1       4.895   4.458  12.067  0.00  0.00    -0.239 NA
ATOM      3  H   ASP A   1       4.349   3.674  12.477  0.00  0.00    +0.142 HD
ENDBRANCH   1   2
BRANCH   1   4
ATOM      4  C   ASP A   1       7.401   4.165  12.057  0.00  0.00    +0.225 C 
ATOM      5  O   ASP A   1       8.042   3.339  12.684  0.00  0.00    -0.287 OA
ENDBRANCH   1   4
BRANCH   1   6
ATOM      6  CB  ASP A   1       6.057   4.543  14.226  0.00  0.00    +0.139 C 
BRANCH   6   7
ATOM      7  CG  ASP A   1       7.108   5.253  15.100  0.00  0.00    +0.367 C 
ATOM      8  OD2 ASP A   1       7.274   4.794  16.208  0.00  0.00    -0.246 OA
ATOM      9  OD1 ASP A   1       7.690   6.217  14.648  0.00  0.00    -0.246 OA
ENDBRANCH   6   7
ENDBRANCH   1   6
TORSDOF 4
REMARK  Name = ../refined-set-2016/1c5y/1c5y_pocket.pdb
REMARK  150 active torsions:
REMARK  status: ('A' for Active; 'I' for Inactive)
REMARK    1  A    between atoms: _1  and  _3
REMARK    2  A    between atoms: _3  and  _4
REMARK    3  A    between atoms: _3  and  _6
REMARK    4  A    between atoms: _6  and  _7
REMARK    5  A    between atoms: _10  and  _12
REMARK    6  A    between atoms: _12  and  _13
REMARK    7  A    between atoms: _12  and  _15
REMARK    8  A    between atoms: _15  and  _16
REMARK    9  A    between atoms: _16  and  _34
REMARK   10  A    between atoms: _17  and  _19
REMARK   11  A    between atoms: _19  and  _20
REMARK   12  A    between atoms: _19  and  _22
REMARK   13  A    between atoms: _22  and  _23
REMARK   14  A    between atoms: _28  and  _30
REMARK   15  A    between atoms: _30  and  _31
REMARK   16  A    between atoms: _30  and  _33
REMARK   17  A    between atoms: _33  and  _34
REMARK   18  A    between atoms: _35  and  _37
REMARK   19  A    between atoms: _37  and  _38
REMARK   20  A    between atoms: _37  and  _40
REMARK   21  A    between atoms: _40  and  _41
REMARK   22  A    between atoms: _44  and  _46
REMARK   23  A    between atoms: _46  and  _47
REMARK   24  A    between atoms: _46  and  _49
REMARK   25  A    between atoms: _49  and  _50
REMARK   26  A    between atoms: _55  and  _57
REMARK   27  A    between atoms: _57  and  _58
REMARK   28  A    between atoms: _57  and  _60
REMARK   29  A    between atoms: _60  and  _61
REMARK   30  A    between atoms: _64  and  _66
REMARK   31  A    between atoms: _66  and  _67
REMARK   32  A    between atoms: _66  and  _69
REMARK   33  A    between atoms: _69  and  _70
REMARK   34  A    between atoms: _73  and  _75
REMARK   35  A    between atoms: _75  and  _76
REMARK   36  A    between atoms: _75  and  _78
REMARK   37  A    between atoms: _78  and  _79
REMARK   38  A    between atoms: _79  and  _80
REMARK   39  A    between atoms: _80  and  _81
REMARK   40  A    between atoms: _81  and  _82
REMARK   41  A    between atoms: _86  and  _88
REMARK   42  A    between atoms: _88  and  _89
REMARK   43  A    between atoms: _88  and  _91
REMARK   44  A    between atoms: _91  and  _92
REMARK   45  A    between atoms: _94  and  _96
REMARK   46  A    between atoms: _96  and  _97
REMARK   47  A    between atoms: _96  and  _99
REMARK   48  A    between atoms: _99  and  _100
REMARK   49  A    between atoms: _105  and  _106
REMARK   50  A    between atoms: _108  and  _110
REMARK   51  A    between atoms: _110  and  _111
REMARK   52  A    between atoms: _110  and  _113
REMARK   53  A    between atoms: _116  and  _118
REMARK   54  A    between atoms: _118  and  _119
REMARK   55  A    between atoms: _118  and  _121
REMARK   56  A    between atoms: _121  and  _122
REMARK   57  A    between atoms: _127  and  _128
REMARK   58  A    between atoms: _130  and  _132
REMARK   59  A    between atoms: _132  and  _133
REMARK   60  A    between atoms: _136  and  _138
REMARK   61  A    between atoms: _138  and  _139
REMARK   62  A    between atoms: _142  and  _144
REMARK   63  A    between atoms: _144  and  _145
REMARK   64  A    between atoms: _144  and  _147
REMARK   65  A    between atoms: _147  and  _148
REMARK   66  A    between atoms: _151  and  _153
REMARK   67  A    between atoms: _153  and  _154
REMARK   68  A    between atoms: _153  and  _156
REMARK   69  A    between atoms: _156  and  _157
REMARK   70  A    between atoms: _160  and  _162
REMARK   71  A    between atoms: _162  and  _163
REMARK   72  A    between atoms: _162  and  _165
REMARK   73  A    between atoms: _165  and  _166
REMARK   74  A    between atoms: _168  and  _170
REMARK   75  A    between atoms: _170  and  _171
REMARK   76  A    between atoms: _170  and  _173
REMARK   77  A    between atoms: _173  and  _174
REMARK   78  A    between atoms: _174  and  _293
REMARK   79  A    between atoms: _175  and  _177
REMARK   80  A    between atoms: _177  and  _178
REMARK   81  A    between atoms: _177  and  _180
REMARK   82  A    between atoms: _180  and  _181
REMARK   83  A    between atoms: _181  and  _182
REMARK   84  A    between atoms: _187  and  _189
REMARK   85  A    between atoms: _189  and  _190
REMARK   86  A    between atoms: _192  and  _194
REMARK   87  A    between atoms: _194  and  _195
REMARK   88  A    between atoms: _194  and  _197
REMARK   89  A    between atoms: _197  and  _198
REMARK   90  A    between atoms: _201  and  _203
REMARK   91  A    between atoms: _203  and  _204
REMARK   92  A    between atoms: _203  and  _206
REMARK   93  A    between atoms: _206  and  _207
REMARK   94  A    between atoms: _209  and  _211
REMARK   95  A    between atoms: _211  and  _212
REMARK   96  A    between atoms: _214  and  _216
REMARK   97  A    between atoms: _216  and  _217
REMARK   98  A    between atoms: _219  and  _221
REMARK   99  A    between atoms: _221  and  _222
REMARK  100  A    between atoms: _221  and  _224
REMARK  101  A    between atoms: _224  and  _225
REMARK  102  A    between atoms: _228  and  _230
REMARK  103  A    between atoms: _230  and  _231
REMARK  104  A    between atoms: _230  and  _233
REMARK  105  A    between atoms: _236  and  _238
REMARK  106  A    between atoms: _238  and  _239
REMARK  107  A    between atoms: _238  and  _241
REMARK  108  A    between atoms: _241  and  _242
REMARK  109  A    between atoms: _244  and  _246
REMARK  110  A    between atoms: _246  and  _247
REMARK  111  A    between atoms: _246  and  _249
REMARK  112  A    between atoms: _249  and  _250
REMARK  113  A    between atoms: _260  and  _262
REMARK  114  A    between atoms: _262  and  _263
REMARK  115  A    between atoms: _265  and  _267
REMARK  116  A    between atoms: _267  and  _268
REMARK  117  A    between atoms: _267  and  _270
REMARK  118  A    between atoms: _270  and  _271
REMARK  119  A    between atoms: _271  and  _272
REMARK  120  A    between atoms: _272  and  _273
REMARK  121  A    between atoms: _282  and  _284
REMARK  122  A    between atoms: _284  and  _285
REMARK  123  A    between atoms: _287  and  _289
REMARK  124  A    between atoms: _289  and  _290
REMARK  125  A    between atoms: _289  and  _292
REMARK  126  A    between atoms: _292  and  _293
REMARK  127  A    between atoms: _294  and  _296
REMARK  128  A    between atoms: _296  and  _297
REMARK  129  A    between atoms: _300  and  _302
REMARK  130  A    between atoms: _302  and  _303
REMARK  131  A    between atoms: _302  and  _305
REMARK  132  A    between atoms: _305  and  _306
REMARK  133  A    between atoms: _309  and  _311
REMARK  134  A    between atoms: _311  and  _312
REMARK  135  A    between atoms: _311  and  _314
REMARK  136  A    between atoms: _314  and  _315
REMARK  137  A    between atoms: _315  and  _316
REMARK  138  A    between atoms: _316  and  _317
REMARK  139  A    between atoms: _317  and  _318
REMARK  140  A    between atoms: _323  and  _324
REMARK  141  A    between atoms: _329  and  _331
REMARK  142  A    between atoms: _331  and  _332
REMARK  143  A    between atoms: _334  and  _336
REMARK  144  A    between atoms: _336  and  _337
REMARK  145  A    between atoms: _336  and  _339
REMARK  146  A    between atoms: _342  and  _344
REMARK  147  A    between atoms: _344  and  _345
REMARK  148  A    between atoms: _344  and  _347
REMARK  149  A    between atoms: _347  and  _348
REMARK  150  A    between atoms: _353  and  _354
REMARK                            x       y       z     vdW  Elec       q    Type
REMARK                         _______ _______ _______ _____ _____    ______ ____
ROOT
ATOM      1  CA  ILE A   1      15.434  -6.942  20.342  0.00  0.00    +0.133 C 
ENDROOT
BRANCH   1   2
ATOM      2  N   ILE A   1      15.458  -8.411  20.561  0.00  0.00    -0.239 NA
ATOM      3  H   ILE A   1      15.621  -8.785  21.517  0.00  0.00    +0.142 HD
ENDBRANCH   1   2
BRANCH   1   4
ATOM      4  CB  ILE A   1      14.318  -6.270  21.174  0.00  0.00    +0.023 C 
ATOM      5  CG2 ILE A   1      12.966  -6.602  20.493  0.00  0.00    +0.002 C 
BRANCH   4   6
ATOM      6  CG1 ILE A   1      14.342  -6.768  22.642  0.00  0.00    +0.002 C 
ATOM      7  CD1 ILE A   1      13.113  -6.238  23.444  0.00  0.00    +0.000 C 
ENDBRANCH   4   6
ENDBRANCH   1   4
BRANCH   1   8
ATOM      8  C   ILE A   1      16.812  -6.560  20.836  0.00  0.00    +0.224 C 
ATOM      9  O   ILE A   1      17.404  -7.259  21.652  0.00  0.00    -0.287 OA
ENDBRANCH   1   8
TORSDOF 4
REMARK  Name = ../refined-set-2016/1c5y/1c5y_pocket.pdb
REMARK  150 active torsions:
REMARK  status: ('A' for Active; 'I' for Inactive)
REMARK    1  A    between atoms: _1  and  _3
REMARK    2  A    between atoms: _3  and  _4
REMARK    3  A    between atoms: _3  and  _6
REMARK    4  A    between atoms: _6  and  _7
REMARK    5  A    between atoms: _10  and  _12
REMARK    6  A    between atoms: _12  and  _13
REMARK    7  A    between atoms: _12  and  _15
REMARK    8  A    between atoms: _15  and  _16
REMARK    9  A    between atoms: _16  and  _34
REMARK   10  A    between atoms: _17  and  _19
REMARK   11  A    between atoms: _19  and  _20
REMARK   12  A    between atoms: _19  and  _22
REMARK   13  A    between atoms: _22  and  _23
REMARK   14  A    between atoms: _28  and  _30
REMARK   15  A    between atoms: _30  and  _31
REMARK   16  A    between atoms: _30  and  _33
REMARK   17  A    between atoms: _33  and  _34
REMARK   18  A    between atoms: _35  and  _37
REMARK   19  A    between atoms: _37  and  _38
REMARK   20  A    between atoms: _37  and  _40
REMARK   21  A    between atoms: _40  and  _41
REMARK   22  A    between atoms: _44  and  _46
REMARK   23  A    between atoms: _46  and  _47
REMARK   24  A    between atoms: _46  and  _49
REMARK   25  A    between atoms: _49  and  _50
REMARK   26  A    between atoms: _55  and  _57
REMARK   27  A    between atoms: _57  and  _58
REMARK   28  A    between atoms: _57  and  _60
REMARK   29  A    between atoms: _60  and  _61
REMARK   30  A    between atoms: _64  and  _66
REMARK   31  A    between atoms: _66  and  _67
REMARK   32  A    between atoms: _66  and  _69
REMARK   33  A    between atoms: _69  and  _70
REMARK   34  A    between atoms: _73  and  _75
REMARK   35  A    between atoms: _75  and  _76
REMARK   36  A    between atoms: _75  and  _78
REMARK   37  A    between atoms: _78  and  _79
REMARK   38  A    between atoms: _79  and  _80
REMARK   39  A    between atoms: _80  and  _81
REMARK   40  A    between atoms: _81  and  _82
REMARK   41  A    between atoms: _86  and  _88
REMARK   42  A    between atoms: _88  and  _89
REMARK   43  A    between atoms: _88  and  _91
REMARK   44  A    between atoms: _91  and  _92
REMARK   45  A    between atoms: _94  and  _96
REMARK   46  A    between atoms: _96  and  _97
REMARK   47  A    between atoms: _96  and  _99
REMARK   48  A    between atoms: _99  and  _100
REMARK   49  A    between atoms: _105  and  _106
REMARK   50  A    between atoms: _108  and  _110
REMARK   51  A    between atoms: _110  and  _111
REMARK   52  A    between atoms: _110  and  _113
REMARK   53  A    between atoms: _116  and  _118
REMARK   54  A    between atoms: _118  and  _119
REMARK   55  A    between atoms: _118  and  _121
REMARK   56  A    between atoms: _121  and  _122
REMARK   57  A    between atoms: _127  and  _128
REMARK   58  A    between atoms: _130  and  _132
REMARK   59  A    between atoms: _132  and  _133
REMARK   60  A    between atoms: _136  and  _138
REMARK   61  A    between atoms: _138  and  _139
REMARK   62  A    between atoms: _142  and  _144
REMARK   63  A    between atoms: _144  and  _145
REMARK   64  A    between atoms: _144  and  _147
REMARK   65  A    between atoms: _147  and  _148
REMARK   66  A    between atoms: _151  and  _153
REMARK   67  A    between atoms: _153  and  _154
REMARK   68  A    between atoms: _153  and  _156
REMARK   69  A    between atoms: _156  and  _157
REMARK   70  A    between atoms: _160  and  _162
REMARK   71  A    between atoms: _162  and  _163
REMARK   72  A    between atoms: _162  and  _165
REMARK   73  A    between atoms: _165  and  _166
REMARK   74  A    between atoms: _168  and  _170
REMARK   75  A    between atoms: _170  and  _171
REMARK   76  A    between atoms: _170  and  _173
REMARK   77  A    between atoms: _173  and  _174
REMARK   78  A    between atoms: _174  and  _293
REMARK   79  A    between atoms: _175  and  _177
REMARK   80  A    between atoms: _177  and  _178
REMARK   81  A    between atoms: _177  and  _180
REMARK   82  A    between atoms: _180  and  _181
REMARK   83  A    between atoms: _181  and  _182
REMARK   84  A    between atoms: _187  and  _189
REMARK   85  A    between atoms: _189  and  _190
REMARK   86  A    between atoms: _192  and  _194
REMARK   87  A    between atoms: _194  and  _195
REMARK   88  A    between atoms: _194  and  _197
REMARK   89  A    between atoms: _197  and  _198
REMARK   90  A    between atoms: _201  and  _203
REMARK   91  A    between atoms: _203  and  _204
REMARK   92  A    between atoms: _203  and  _206
REMARK   93  A    between atoms: _206  and  _207
REMARK   94  A    between atoms: _209  and  _211
REMARK   95  A    between atoms: _211  and  _212
REMARK   96  A    between atoms: _214  and  _216
REMARK   97  A    between atoms: _216  and  _217
REMARK   98  A    between atoms: _219  and  _221
REMARK   99  A    between atoms: _221  and  _222
REMARK  100  A    between atoms: _221  and  _224
REMARK  101  A    between atoms: _224  and  _225
REMARK  102  A    between atoms: _228  and  _230
REMARK  103  A    between atoms: _230  and  _231
REMARK  104  A    between atoms: _230  and  _233
REMARK  105  A    between atoms: _236  and  _238
REMARK  106  A    between atoms: _238  and  _239
REMARK  107  A    between atoms: _238  and  _241
REMARK  108  A    between atoms: _241  and  _242
REMARK  109  A    between atoms: _244  and  _246
REMARK  110  A    between atoms: _246  and  _247
REMARK  111  A    between atoms: _246  and  _249
REMARK  112  A    between atoms: _249  and  _250
REMARK  113  A    between atoms: _260  and  _262
REMARK  114  A    between atoms: _262  and  _263
REMARK  115  A    between atoms: _265  and  _267
REMARK  116  A    between atoms: _267  and  _268
REMARK  117  A    between atoms: _267  and  _270
REMARK  118  A    between atoms: _270  and  _271
REMARK  119  A    between atoms: _271  and  _272
REMARK  120  A    between atoms: _272  and  _273
REMARK  121  A    between atoms: _282  and  _284
REMARK  122  A    between atoms: _284  and  _285
REMARK  123  A    between atoms: _287  and  _289
REMARK  124  A    between atoms: _289  and  _290
REMARK  125  A    between atoms: _289  and  _292
REMARK  126  A    between atoms: _292  and  _293
REMARK  127  A    between atoms: _294  and  _296
REMARK  128  A    between atoms: _296  and  _297
REMARK  129  A    between atoms: _300  and  _302
REMARK  130  A    between atoms: _302  and  _303
REMARK  131  A    between atoms: _302  and  _305
REMARK  132  A    between atoms: _305  and  _306
REMARK  133  A    between atoms: _309  and  _311
REMARK  134  A    between atoms: _311  and  _312
REMARK  135  A    between atoms: _311  and  _314
REMARK  136  A    between atoms: _314  and  _315
REMARK  137  A    between atoms: _315  and  _316
REMARK  138  A    between atoms: _316  and  _317
REMARK  139  A    between atoms: _317  and  _318
REMARK  140  A    between atoms: _323  and  _324
REMARK  141  A    between atoms: _329  and  _331
REMARK  142  A    between atoms: _331  and  _332
REMARK  143  A    between atoms: _334  and  _336
REMARK  144  A    between atoms: _336  and  _337
REMARK  145  A    between atoms: _336  and  _339
REMARK  146  A    between atoms: _342  and  _344
REMARK  147  A    between atoms: _344  and  _345
REMARK  148  A    between atoms: _344  and  _347
REMARK  149  A    between atoms: _347  and  _348
REMARK  150  A    between atoms: _353  and  _354
REMARK                            x       y       z     vdW  Elec       q    Type
REMARK                         _______ _______ _______ _____ _____    ______ ____
ROOT
ATOM      1  CG  LYS A   1      16.196   4.691  29.804  0.00  0.00    -0.000 C 
ENDROOT
BRANCH   1   2
ATOM      2  CB  LYS A   1      16.076   3.173  30.107  0.00  0.00    +0.025 C 
BRANCH   2   3
ATOM      3  CA  LYS A   1      17.254   2.357  29.473  0.00  0.00    +0.133 C 
BRANCH   3   4
ATOM      4  N   LYS A   1      17.229   2.487  27.995  0.00  0.00    -0.239 NA
ATOM      5  H   LYS A   1      16.533   3.127  27.562  0.00  0.00    +0.142 HD
ENDBRANCH   3   4
BRANCH   3   6
ATOM      6  C   LYS A   1      17.160   0.940  29.973  0.00  0.00    +0.224 C 
ATOM      7  O   LYS A   1      16.589   0.085  29.310  0.00  0.00    -0.287 OA
ENDBRANCH   3   6
ENDBRANCH   2   3
ENDBRANCH   1   2
BRANCH   1   8
ATOM      8  CD  LYS A   1      15.095   5.416  30.588  0.00  0.00    -0.024 C 
BRANCH   8   9
ATOM      9  CE  LYS A   1      15.166   6.945  30.368  0.00  0.00    -0.086 C 
BRANCH   9  10
ATOM     10  NZ  LYS A   1      14.164   7.638  31.242  0.00  0.00    +0.380 N 
ATOM     11  HZ1 LYS A   1      14.370   7.426  32.239  0.00  0.00    -0.089 HD
ATOM     12  HZ2 LYS A   1      14.221   8.665  31.086  0.00  0.00    -0.089 HD
ATOM     13  HZ3 LYS A   1      13.209   7.302  31.005  0.00  0.00    -0.089 HD
ENDBRANCH   9  10
ENDBRANCH   8   9
ENDBRANCH   1   8
TORSDOF 7
REMARK  Name = ../refined-set-2016/1c5y/1c5y_pocket.pdb
REMARK  150 active torsions:
REMARK  status: ('A' for Active; 'I' for Inactive)
REMARK    1  A    between atoms: _1  and  _3
REMARK    2  A    between atoms: _3  and  _4
REMARK    3  A    between atoms: _3  and  _6
REMARK    4  A    between atoms: _6  and  _7
REMARK    5  A    between atoms: _10  and  _12
REMARK    6  A    between atoms: _12  and  _13
REMARK    7  A    between atoms: _12  and  _15
REMARK    8  A    between atoms: _15  and  _16
REMARK    9  A    between atoms: _16  and  _34
REMARK   10  A    between atoms: _17  and  _19
REMARK   11  A    between atoms: _19  and  _20
REMARK   12  A    between atoms: _19  and  _22
REMARK   13  A    between atoms: _22  and  _23
REMARK   14  A    between atoms: _28  and  _30
REMARK   15  A    between atoms: _30  and  _31
REMARK   16  A    between atoms: _30  and  _33
REMARK   17  A    between atoms: _33  and  _34
REMARK   18  A    between atoms: _35  and  _37
REMARK   19  A    between atoms: _37  and  _38
REMARK   20  A    between atoms: _37  and  _40
REMARK   21  A    between atoms: _40  and  _41
REMARK   22  A    between atoms: _44  and  _46
REMARK   23  A    between atoms: _46  and  _47
REMARK   24  A    between atoms: _46  and  _49
REMARK   25  A    between atoms: _49  and  _50
REMARK   26  A    between atoms: _55  and  _57
REMARK   27  A    between atoms: _57  and  _58
REMARK   28  A    between atoms: _57  and  _60
REMARK   29  A    between atoms: _60  and  _61
REMARK   30  A    between atoms: _64  and  _66
REMARK   31  A    between atoms: _66  and  _67
REMARK   32  A    between atoms: _66  and  _69
REMARK   33  A    between atoms: _69  and  _70
REMARK   34  A    between atoms: _73  and  _75
REMARK   35  A    between atoms: _75  and  _76
REMARK   36  A    between atoms: _75  and  _78
REMARK   37  A    between atoms: _78  and  _79
REMARK   38  A    between atoms: _79  and  _80
REMARK   39  A    between atoms: _80  and  _81
REMARK   40  A    between atoms: _81  and  _82
REMARK   41  A    between atoms: _86  and  _88
REMARK   42  A    between atoms: _88  and  _89
REMARK   43  A    between atoms: _88  and  _91
REMARK   44  A    between atoms: _91  and  _92
REMARK   45  A    between atoms: _94  and  _96
REMARK   46  A    between atoms: _96  and  _97
REMARK   47  A    between atoms: _96  and  _99
REMARK   48  A    between atoms: _99  and  _100
REMARK   49  A    between atoms: _105  and  _106
REMARK   50  A    between atoms: _108  and  _110
REMARK   51  A    between atoms: _110  and  _111
REMARK   52  A    between atoms: _110  and  _113
REMARK   53  A    between atoms: _116  and  _118
REMARK   54  A    between atoms: _118  and  _119
REMARK   55  A    between atoms: _118  and  _121
REMARK   56  A    between atoms: _121  and  _122
REMARK   57  A    between atoms: _127  and  _128
REMARK   58  A    between atoms: _130  and  _132
REMARK   59  A    between atoms: _132  and  _133
REMARK   60  A    between atoms: _136  and  _138
REMARK   61  A    between atoms: _138  and  _139
REMARK   62  A    between atoms: _142  and  _144
REMARK   63  A    between atoms: _144  and  _145
REMARK   64  A    between atoms: _144  and  _147
REMARK   65  A    between atoms: _147  and  _148
REMARK   66  A    between atoms: _151  and  _153
REMARK   67  A    between atoms: _153  and  _154
REMARK   68  A    between atoms: _153  and  _156
REMARK   69  A    between atoms: _156  and  _157
REMARK   70  A    between atoms: _160  and  _162
REMARK   71  A    between atoms: _162  and  _163
REMARK   72  A    between atoms: _162  and  _165
REMARK   73  A    between atoms: _165  and  _166
REMARK   74  A    between atoms: _168  and  _170
REMARK   75  A    between atoms: _170  and  _171
REMARK   76  A    between atoms: _170  and  _173
REMARK   77  A    between atoms: _173  and  _174
REMARK   78  A    between atoms: _174  and  _293
REMARK   79  A    between atoms: _175  and  _177
REMARK   80  A    between atoms: _177  and  _178
REMARK   81  A    between atoms: _177  and  _180
REMARK   82  A    between atoms: _180  and  _181
REMARK   83  A    between atoms: _181  and  _182
REMARK   84  A    between atoms: _187  and  _189
REMARK   85  A    between atoms: _189  and  _190
REMARK   86  A    between atoms: _192  and  _194
REMARK   87  A    between atoms: _194  and  _195
REMARK   88  A    between atoms: _194  and  _197
REMARK   89  A    between atoms: _197  and  _198
REMARK   90  A    between atoms: _201  and  _203
REMARK   91  A    between atoms: _203  and  _204
REMARK   92  A    between atoms: _203  and  _206
REMARK   93  A    between atoms: _206  and  _207
REMARK   94  A    between atoms: _209  and  _211
REMARK   95  A    between atoms: _211  and  _212
REMARK   96  A    between atoms: _214  and  _216
REMARK   97  A    between atoms: _216  and  _217
REMARK   98  A    between atoms: _219  and  _221
REMARK   99  A    between atoms: _221  and  _222
REMARK  100  A    between atoms: _221  and  _224
REMARK  101  A    between atoms: _224  and  _225
REMARK  102  A    between atoms: _228  and  _230
REMARK  103  A    between atoms: _230  and  _231
REMARK  104  A    between atoms: _230  and  _233
REMARK  105  A    between atoms: _236  and  _238
REMARK  106  A    between atoms: _238  and  _239
REMARK  107  A    between atoms: _238  and  _241
REMARK  108  A    between atoms: _241  and  _242
REMARK  109  A    between atoms: _244  and  _246
REMARK  110  A    between atoms: _246  and  _247
REMARK  111  A    between atoms: _246  and  _249
REMARK  112  A    between atoms: _249  and  _250
REMARK  113  A    between atoms: _260  and  _262
REMARK  114  A    between atoms: _262  and  _263
REMARK  115  A    between atoms: _265  and  _267
REMARK  116  A    between atoms: _267  and  _268
REMARK  117  A    between atoms: _267  and  _270
REMARK  118  A    between atoms: _270  and  _271
REMARK  119  A    between atoms: _271  and  _272
REMARK  120  A    between atoms: _272  and  _273
REMARK  121  A    between atoms: _282  and  _284
REMARK  122  A    between atoms: _284  and  _285
REMARK  123  A    between atoms: _287  and  _289
REMARK  124  A    between atoms: _289  and  _290
REMARK  125  A    between atoms: _289  and  _292
REMARK  126  A    between atoms: _292  and  _293
REMARK  127  A    between atoms: _294  and  _296
REMARK  128  A    between atoms: _296  and  _297
REMARK  129  A    between atoms: _300  and  _302
REMARK  130  A    between atoms: _302  and  _303
REMARK  131  A    between atoms: _302  and  _305
REMARK  132  A    between atoms: _305  and  _306
REMARK  133  A    between atoms: _309  and  _311
REMARK  134  A    between atoms: _311  and  _312
REMARK  135  A    between atoms: _311  and  _314
REMARK  136  A    between atoms: _314  and  _315
REMARK  137  A    between atoms: _315  and  _316
REMARK  138  A    between atoms: _316  and  _317
REMARK  139  A    between atoms: _317  and  _318
REMARK  140  A    between atoms: _323  and  _324
REMARK  141  A    between atoms: _329  and  _331
REMARK  142  A    between atoms: _331  and  _332
REMARK  143  A    between atoms: _334  and  _336
REMARK  144  A    between atoms: _336  and  _337
REMARK  145  A    between atoms: _336  and  _339
REMARK  146  A    between atoms: _342  and  _344
REMARK  147  A    between atoms: _344  and  _345
REMARK  148  A    between atoms: _344  and  _347
REMARK  149  A    between atoms: _347  and  _348
REMARK  150  A    between atoms: _353  and  _354
REMARK                            x       y       z     vdW  Elec       q    Type
REMARK                         _______ _______ _______ _____ _____    ______ ____
ROOT
ATOM      1  CA  SER A   1      12.318   3.210  33.408  0.00  0.00    +0.163 C 
ENDROOT
BRANCH   1   2
ATOM      2  N   SER A   1      13.028   1.987  33.890  0.00  0.00    -0.237 NA
ATOM      3  H   SER A   1      12.496   1.196  34.306  0.00  0.00    +0.142 HD
ENDBRANCH   1   2
BRANCH   1   4
ATOM      4  CB  SER A   1      12.676   4.458  34.221  0.00  0.00    +0.227 C 
ATOM      5  OG  SER A   1      12.531   5.543  33.702  0.00  0.00    -0.287 OA
ENDBRANCH   1   4
BRANCH   1   6
ATOM      6  C   SER A   1      10.769   2.987  33.439  0.00  0.00    +0.162 C 
BRANCH   6   7
ATOM      7  O   SER A   1      10.510   1.825  34.232  0.00  0.00    -0.380 OA
ATOM      8  H   SER A   1       9.534   1.662  34.267  0.00  0.00    +0.211 HD
ENDBRANCH   6   7
ENDBRANCH   1   6
TORSDOF 4
REMARK  Name = ../refined-set-2016/1c5y/1c5y_pocket.pdb
REMARK  150 active torsions:
REMARK  status: ('A' for Active; 'I' for Inactive)
REMARK    1  A    between atoms: _1  and  _3
REMARK    2  A    between atoms: _3  and  _4
REMARK    3  A    between atoms: _3  and  _6
REMARK    4  A    between atoms: _6  and  _7
REMARK    5  A    between atoms: _10  and  _12
REMARK    6  A    between atoms: _12  and  _13
REMARK    7  A    between atoms: _12  and  _15
REMARK    8  A    between atoms: _15  and  _16
REMARK    9  A    between atoms: _16  and  _34
REMARK   10  A    between atoms: _17  and  _19
REMARK   11  A    between atoms: _19  and  _20
REMARK   12  A    between atoms: _19  and  _22
REMARK   13  A    between atoms: _22  and  _23
REMARK   14  A    between atoms: _28  and  _30
REMARK   15  A    between atoms: _30  and  _31
REMARK   16  A    between atoms: _30  and  _33
REMARK   17  A    between atoms: _33  and  _34
REMARK   18  A    between atoms: _35  and  _37
REMARK   19  A    between atoms: _37  and  _38
REMARK   20  A    between atoms: _37  and  _40
REMARK   21  A    between atoms: _40  and  _41
REMARK   22  A    between atoms: _44  and  _46
REMARK   23  A    between atoms: _46  and  _47
REMARK   24  A    between atoms: _46  and  _49
REMARK   25  A    between atoms: _49  and  _50
REMARK   26  A    between atoms: _55  and  _57
REMARK   27  A    between atoms: _57  and  _58
REMARK   28  A    between atoms: _57  and  _60
REMARK   29  A    between atoms: _60  and  _61
REMARK   30  A    between atoms: _64  and  _66
REMARK   31  A    between atoms: _66  and  _67
REMARK   32  A    between atoms: _66  and  _69
REMARK   33  A    between atoms: _69  and  _70
REMARK   34  A    between atoms: _73  and  _75
REMARK   35  A    between atoms: _75  and  _76
REMARK   36  A    between atoms: _75  and  _78
REMARK   37  A    between atoms: _78  and  _79
REMARK   38  A    between atoms: _79  and  _80
REMARK   39  A    between atoms: _80  and  _81
REMARK   40  A    between atoms: _81  and  _82
REMARK   41  A    between atoms: _86  and  _88
REMARK   42  A    between atoms: _88  and  _89
REMARK   43  A    between atoms: _88  and  _91
REMARK   44  A    between atoms: _91  and  _92
REMARK   45  A    between atoms: _94  and  _96
REMARK   46  A    between atoms: _96  and  _97
REMARK   47  A    between atoms: _96  and  _99
REMARK   48  A    between atoms: _99  and  _100
REMARK   49  A    between atoms: _105  and  _106
REMARK   50  A    between atoms: _108  and  _110
REMARK   51  A    between atoms: _110  and  _111
REMARK   52  A    between atoms: _110  and  _113
REMARK   53  A    between atoms: _116  and  _118
REMARK   54  A    between atoms: _118  and  _119
REMARK   55  A    between atoms: _118  and  _121
REMARK   56  A    between atoms: _121  and  _122
REMARK   57  A    between atoms: _127  and  _128
REMARK   58  A    between atoms: _130  and  _132
REMARK   59  A    between atoms: _132  and  _133
REMARK   60  A    between atoms: _136  and  _138
REMARK   61  A    between atoms: _138  and  _139
REMARK   62  A    between atoms: _142  and  _144
REMARK   63  A    between atoms: _144  and  _145
REMARK   64  A    between atoms: _144  and  _147
REMARK   65  A    between atoms: _147  and  _148
REMARK   66  A    between atoms: _151  and  _153
REMARK   67  A    between atoms: _153  and  _154
REMARK   68  A    between atoms: _153  and  _156
REMARK   69  A    between atoms: _156  and  _157
REMARK   70  A    between atoms: _160  and  _162
REMARK   71  A    between atoms: _162  and  _163
REMARK   72  A    between atoms: _162  and  _165
REMARK   73  A    between atoms: _165  and  _166
REMARK   74  A    between atoms: _168  and  _170
REMARK   75  A    between atoms: _170  and  _171
REMARK   76  A    between atoms: _170  and  _173
REMARK   77  A    between atoms: _173  and  _174
REMARK   78  A    between atoms: _174  and  _293
REMARK   79  A    between atoms: _175  and  _177
REMARK   80  A    between atoms: _177  and  _178
REMARK   81  A    between atoms: _177  and  _180
REMARK   82  A    between atoms: _180  and  _181
REMARK   83  A    between atoms: _181  and  _182
REMARK   84  A    between atoms: _187  and  _189
REMARK   85  A    between atoms: _189  and  _190
REMARK   86  A    between atoms: _192  and  _194
REMARK   87  A    between atoms: _194  and  _195
REMARK   88  A    between atoms: _194  and  _197
REMARK   89  A    between atoms: _197  and  _198
REMARK   90  A    between atoms: _201  and  _203
REMARK   91  A    between atoms: _203  and  _204
REMARK   92  A    between atoms: _203  and  _206
REMARK   93  A    between atoms: _206  and  _207
REMARK   94  A    between atoms: _209  and  _211
REMARK   95  A    between atoms: _211  and  _212
REMARK   96  A    between atoms: _214  and  _216
REMARK   97  A    between atoms: _216  and  _217
REMARK   98  A    between atoms: _219  and  _221
REMARK   99  A    between atoms: _221  and  _222
REMARK  100  A    between atoms: _221  and  _224
REMARK  101  A    between atoms: _224  and  _225
REMARK  102  A    between atoms: _228  and  _230
REMARK  103  A    between atoms: _230  and  _231
REMARK  104  A    between atoms: _230  and  _233
REMARK  105  A    between atoms: _236  and  _238
REMARK  106  A    between atoms: _238  and  _239
REMARK  107  A    between atoms: _238  and  _241
REMARK  108  A    between atoms: _241  and  _242
REMARK  109  A    between atoms: _244  and  _246
REMARK  110  A    between atoms: _246  and  _247
REMARK  111  A    between atoms: _246  and  _249
REMARK  112  A    between atoms: _249  and  _250
REMARK  113  A    between atoms: _260  and  _262
REMARK  114  A    between atoms: _262  and  _263
REMARK  115  A    between atoms: _265  and  _267
REMARK  116  A    between atoms: _267  and  _268
REMARK  117  A    between atoms: _267  and  _270
REMARK  118  A    between atoms: _270  and  _271
REMARK  119  A    between atoms: _271  and  _272
REMARK  120  A    between atoms: _272  and  _273
REMARK  121  A    between atoms: _282  and  _284
REMARK  122  A    between atoms: _284  and  _285
REMARK  123  A    between atoms: _287  and  _289
REMARK  124  A    between atoms: _289  and  _290
REMARK  125  A    between atoms: _289  and  _292
REMARK  126  A    between atoms: _292  and  _293
REMARK  127  A    between atoms: _294  and  _296
REMARK  128  A    between atoms: _296  and  _297
REMARK  129  A    between atoms: _300  and  _302
REMARK  130  A    between atoms: _302  and  _303
REMARK  131  A    between atoms: _302  and  _305
REMARK  132  A    between atoms: _305  and  _306
REMARK  133  A    between atoms: _309  and  _311
REMARK  134  A    between atoms: _311  and  _312
REMARK  135  A    between atoms: _311  and  _314
REMARK  136  A    between atoms: _314  and  _315
REMARK  137  A    between atoms: _315  and  _316
REMARK  138  A    between atoms: _316  and  _317
REMARK  139  A    between atoms: _317  and  _318
REMARK  140  A    between atoms: _323  and  _324
REMARK  141  A    between atoms: _329  and  _331
REMARK  142  A    between atoms: _331  and  _332
REMARK  143  A    between atoms: _334  and  _336
REMARK  144  A    between atoms: _336  and  _337
REMARK  145  A    between atoms: _336  and  _339
REMARK  146  A    between atoms: _342  and  _344
REMARK  147  A    between atoms: _344  and  _345
REMARK  148  A    between atoms: _344  and  _347
REMARK  149  A    between atoms: _347  and  _348
REMARK  150  A    between atoms: _353  and  _354
REMARK                            x       y       z     vdW  Elec       q    Type
REMARK                         _______ _______ _______ _____ _____    ______ ____
ROOT
ATOM      1  CG  TYR A   1      20.421   5.923  26.843  0.00  0.00    -0.020 A 
ATOM      2  CD2 TYR A   1      19.177   5.713  27.389  0.00  0.00    -0.001 A 
ATOM      3  CE2 TYR A   1      18.069   6.337  26.876  0.00  0.00    +0.036 A 
ATOM      4  CZ  TYR A   1      18.187   7.180  25.815  0.00  0.00    +0.134 A 
ATOM      5  CE1 TYR A   1      19.421   7.399  25.267  0.00  0.00    +0.036 A 
ATOM      6  CD1 TYR A   1      20.532   6.774  25.778  0.00  0.00    -0.001 A 
ENDROOT
BRANCH   4   7
ATOM      7  OH  TYR A   1      17.078   7.792  25.286  0.00  0.00    -0.506 OA
ATOM      8  HH  TYR A   1      16.277   7.523  25.802  0.00  0.00    +0.292 HD
ENDBRANCH   4   7
BRANCH   1   9
ATOM      9  CB  TYR A   1      21.677   5.212  27.346  0.00  0.00    +0.051 C 
BRANCH   9  10
ATOM     10  CA  TYR A   1      21.658   4.921  28.829  0.00  0.00    +0.137 C 
BRANCH  10  11
ATOM     11  N   TYR A   1      21.712   6.166  29.647  0.00  0.00    -0.239 NA
ATOM     12  H   TYR A   1      22.398   6.903  29.387  0.00  0.00    +0.142 HD
ENDBRANCH  10  11
BRANCH  10  13
ATOM     13  C   TYR A   1      22.956   4.128  29.140  0.00  0.00    +0.224 C 
ATOM     14  O   TYR A   1      23.992   4.710  29.450  0.00  0.00    -0.287 OA
ENDBRANCH  10  13
ENDBRANCH   9  10
ENDBRANCH   1   9
TORSDOF 5
REMARK  Name = ../refined-set-2016/1c5y/1c5y_pocket.pdb
REMARK  150 active torsions:
REMARK  status: ('A' for Active; 'I' for Inactive)
REMARK    1  A    between atoms: _1  and  _3
REMARK    2  A    between atoms: _3  and  _4
REMARK    3  A    between atoms: _3  and  _6
REMARK    4  A    between atoms: _6  and  _7
REMARK    5  A    between atoms: _10  and  _12
REMARK    6  A    between atoms: _12  and  _13
REMARK    7  A    between atoms: _12  and  _15
REMARK    8  A    between atoms: _15  and  _16
REMARK    9  A    between atoms: _16  and  _34
REMARK   10  A    between atoms: _17  and  _19
REMARK   11  A    between atoms: _19  and  _20
REMARK   12  A    between atoms: _19  and  _22
REMARK   13  A    between atoms: _22  and  _23
REMARK   14  A    between atoms: _28  and  _30
REMARK   15  A    between atoms: _30  and  _31
REMARK   16  A    between atoms: _30  and  _33
REMARK   17  A    between atoms: _33  and  _34
REMARK   18  A    between atoms: _35  and  _37
REMARK   19  A    between atoms: _37  and  _38
REMARK   20  A    between atoms: _37  and  _40
REMARK   21  A    between atoms: _40  and  _41
REMARK   22  A    between atoms: _44  and  _46
REMARK   23  A    between atoms: _46  and  _47
REMARK   24  A    between atoms: _46  and  _49
REMARK   25  A    between atoms: _49  and  _50
REMARK   26  A    between atoms: _55  and  _57
REMARK   27  A    between atoms: _57  and  _58
REMARK   28  A    between atoms: _57  and  _60
REMARK   29  A    between atoms: _60  and  _61
REMARK   30  A    between atoms: _64  and  _66
REMARK   31  A    between atoms: _66  and  _67
REMARK   32  A    between atoms: _66  and  _69
REMARK   33  A    between atoms: _69  and  _70
REMARK   34  A    between atoms: _73  and  _75
REMARK   35  A    between atoms: _75  and  _76
REMARK   36  A    between atoms: _75  and  _78
REMARK   37  A    between atoms: _78  and  _79
REMARK   38  A    between atoms: _79  and  _80
REMARK   39  A    between atoms: _80  and  _81
REMARK   40  A    between atoms: _81  and  _82
REMARK   41  A    between atoms: _86  and  _88
REMARK   42  A    between atoms: _88  and  _89
REMARK   43  A    between atoms: _88  and  _91
REMARK   44  A    between atoms: _91  and  _92
REMARK   45  A    between atoms: _94  and  _96
REMARK   46  A    between atoms: _96  and  _97
REMARK   47  A    between atoms: _96  and  _99
REMARK   48  A    between atoms: _99  and  _100
REMARK   49  A    between atoms: _105  and  _106
REMARK   50  A    between atoms: _108  and  _110
REMARK   51  A    between atoms: _110  and  _111
REMARK   52  A    between atoms: _110  and  _113
REMARK   53  A    between atoms: _116  and  _118
REMARK   54  A    between atoms: _118  and  _119
REMARK   55  A    between atoms: _118  and  _121
REMARK   56  A    between atoms: _121  and  _122
REMARK   57  A    between atoms: _127  and  _128
REMARK   58  A    between atoms: _130  and  _132
REMARK   59  A    between atoms: _132  and  _133
REMARK   60  A    between atoms: _136  and  _138
REMARK   61  A    between atoms: _138  and  _139
REMARK   62  A    between atoms: _142  and  _144
REMARK   63  A    between atoms: _144  and  _145
REMARK   64  A    between atoms: _144  and  _147
REMARK   65  A    between atoms: _147  and  _148
REMARK   66  A    between atoms: _151  and  _153
REMARK   67  A    between atoms: _153  and  _154
REMARK   68  A    between atoms: _153  and  _156
REMARK   69  A    between atoms: _156  and  _157
REMARK   70  A    between atoms: _160  and  _162
REMARK   71  A    between atoms: _162  and  _163
REMARK   72  A    between atoms: _162  and  _165
REMARK   73  A    between atoms: _165  and  _166
REMARK   74  A    between atoms: _168  and  _170
REMARK   75  A    between atoms: _170  and  _171
REMARK   76  A    between atoms: _170  and  _173
REMARK   77  A    between atoms: _173  and  _174
REMARK   78  A    between atoms: _174  and  _293
REMARK   79  A    between atoms: _175  and  _177
REMARK   80  A    between atoms: _177  and  _178
REMARK   81  A    between atoms: _177  and  _180
REMARK   82  A    between atoms: _180  and  _181
REMARK   83  A    between atoms: _181  and  _182
REMARK   84  A    between atoms: _187  and  _189
REMARK   85  A    between atoms: _189  and  _190
REMARK   86  A    between atoms: _192  and  _194
REMARK   87  A    between atoms: _194  and  _195
REMARK   88  A    between atoms: _194  and  _197
REMARK   89  A    between atoms: _197  and  _198
REMARK   90  A    between atoms: _201  and  _203
REMARK   91  A    between atoms: _203  and  _204
REMARK   92  A    between atoms: _203  and  _206
REMARK   93  A    between atoms: _206  and  _207
REMARK   94  A    between atoms: _209  and  _211
REMARK   95  A    between atoms: _211  and  _212
REMARK   96  A    between atoms: _214  and  _216
REMARK   97  A    between atoms: _216  and  _217
REMARK   98  A    between atoms: _219  and  _221
REMARK   99  A    between atoms: _221  and  _222
REMARK  100  A    between atoms: _221  and  _224
REMARK  101  A    between atoms: _224  and  _225
REMARK  102  A    between atoms: _228  and  _230
REMARK  103  A    between atoms: _230  and  _231
REMARK  104  A    between atoms: _230  and  _233
REMARK  105  A    between atoms: _236  and  _238
REMARK  106  A    between atoms: _238  and  _239
REMARK  107  A    between atoms: _238  and  _241
REMARK  108  A    between atoms: _241  and  _242
REMARK  109  A    between atoms: _244  and  _246
REMARK  110  A    between atoms: _246  and  _247
REMARK  111  A    between atoms: _246  and  _249
REMARK  112  A    between atoms: _249  and  _250
REMARK  113  A    between atoms: _260  and  _262
REMARK  114  A    between atoms: _262  and  _263
REMARK  115  A    between atoms: _265  and  _267
REMARK  116  A    between atoms: _267  and  _268
REMARK  117  A    between atoms: _267  and  _270
REMARK  118  A    between atoms: _270  and  _271
REMARK  119  A    between atoms: _271  and  _272
REMARK  120  A    between atoms: _272  and  _273
REMARK  121  A    between atoms: _282  and  _284
REMARK  122  A    between atoms: _284  and  _285
REMARK  123  A    between atoms: _287  and  _289
REMARK  124  A    between atoms: _289  and  _290
REMARK  125  A    between atoms: _289  and  _292
REMARK  126  A    between atoms: _292  and  _293
REMARK  127  A    between atoms: _294  and  _296
REMARK  128  A    between atoms: _296  and  _297
REMARK  129  A    between atoms: _300  and  _302
REMARK  130  A    between atoms: _302  and  _303
REMARK  131  A    between atoms: _302  and  _305
REMARK  132  A    between atoms: _305  and  _306
REMARK  133  A    between atoms: _309  and  _311
REMARK  134  A    between atoms: _311  and  _312
REMARK  135  A    between atoms: _311  and  _314
REMARK  136  A    between atoms: _314  and  _315
REMARK  137  A    between atoms: _315  and  _316
REMARK  138  A    between atoms: _316  and  _317
REMARK  139  A    between atoms: _317  and  _318
REMARK  140  A    between atoms: _323  and  _324
REMARK  141  A    between atoms: _329  and  _331
REMARK  142  A    between atoms: _331  and  _332
REMARK  143  A    between atoms: _334  and  _336
REMARK  144  A    between atoms: _336  and  _337
REMARK  145  A    between atoms: _336  and  _339
REMARK  146  A    between atoms: _342  and  _344
REMARK  147  A    between atoms: _344  and  _345
REMARK  148  A    between atoms: _344  and  _347
REMARK  149  A    between atoms: _347  and  _348
REMARK  150  A    between atoms: _353  and  _354
REMARK                            x       y       z     vdW  Elec       q    Type
REMARK                         _______ _______ _______ _____ _____    ______ ____
ROOT
ATOM      1  CA  VAL A   1      10.662 -11.687  23.881  0.00  0.00    +0.133 C 
ENDROOT
BRANCH   1   2
ATOM      2  CB  VAL A   1      10.251 -10.152  23.757  0.00  0.00    +0.023 C 
ATOM      3  CG2 VAL A   1      10.941  -9.367  24.903  0.00  0.00    +0.002 C 
ATOM      4  CG1 VAL A   1      10.689  -9.554  22.366  0.00  0.00    +0.002 C 
ENDBRANCH   1   2
BRANCH   1   5
ATOM      5  N   VAL A   1      12.086 -11.843  23.501  0.00  0.00    -0.239 NA
ATOM      6  H   VAL A   1      12.342 -11.770  22.496  0.00  0.00    +0.142 HD
ENDBRANCH   1   5
BRANCH   1   7
ATOM      7  C   VAL A   1       9.887 -12.571  22.886  0.00  0.00    +0.224 C 
ATOM      8  O   VAL A   1      10.450 -13.015  21.901  0.00  0.00    -0.287 OA
ENDBRANCH   1   7
TORSDOF 3
REMARK  Name = ../refined-set-2016/1c5y/1c5y_pocket.pdb
REMARK  150 active torsions:
REMARK  status: ('A' for Active; 'I' for Inactive)
REMARK    1  A    between atoms: _1  and  _3
REMARK    2  A    between atoms: _3  and  _4
REMARK    3  A    between atoms: _3  and  _6
REMARK    4  A    between atoms: _6  and  _7
REMARK    5  A    between atoms: _10  and  _12
REMARK    6  A    between atoms: _12  and  _13
REMARK    7  A    between atoms: _12  and  _15
REMARK    8  A    between atoms: _15  and  _16
REMARK    9  A    between atoms: _16  and  _34
REMARK   10  A    between atoms: _17  and  _19
REMARK   11  A    between atoms: _19  and  _20
REMARK   12  A    between atoms: _19  and  _22
REMARK   13  A    between atoms: _22  and  _23
REMARK   14  A    between atoms: _28  and  _30
REMARK   15  A    between atoms: _30  and  _31
REMARK   16  A    between atoms: _30  and  _33
REMARK   17  A    between atoms: _33  and  _34
REMARK   18  A    between atoms: _35  and  _37
REMARK   19  A    between atoms: _37  and  _38
REMARK   20  A    between atoms: _37  and  _40
REMARK   21  A    between atoms: _40  and  _41
REMARK   22  A    between atoms: _44  and  _46
REMARK   23  A    between atoms: _46  and  _47
REMARK   24  A    between atoms: _46  and  _49
REMARK   25  A    between atoms: _49  and  _50
REMARK   26  A    between atoms: _55  and  _57
REMARK   27  A    between atoms: _57  and  _58
REMARK   28  A    between atoms: _57  and  _60
REMARK   29  A    between atoms: _60  and  _61
REMARK   30  A    between atoms: _64  and  _66
REMARK   31  A    between atoms: _66  and  _67
REMARK   32  A    between atoms: _66  and  _69
REMARK   33  A    between atoms: _69  and  _70
REMARK   34  A    between atoms: _73  and  _75
REMARK   35  A    between atoms: _75  and  _76
REMARK   36  A    between atoms: _75  and  _78
REMARK   37  A    between atoms: _78  and  _79
REMARK   38  A    between atoms: _79  and  _80
REMARK   39  A    between atoms: _80  and  _81
REMARK   40  A    between atoms: _81  and  _82
REMARK   41  A    between atoms: _86  and  _88
REMARK   42  A    between atoms: _88  and  _89
REMARK   43  A    between atoms: _88  and  _91
REMARK   44  A    between atoms: _91  and  _92
REMARK   45  A    between atoms: _94  and  _96
REMARK   46  A    between atoms: _96  and  _97
REMARK   47  A    between atoms: _96  and  _99
REMARK   48  A    between atoms: _99  and  _100
REMARK   49  A    between atoms: _105  and  _106
REMARK   50  A    between atoms: _108  and  _110
REMARK   51  A    between atoms: _110  and  _111
REMARK   52  A    between atoms: _110  and  _113
REMARK   53  A    between atoms: _116  and  _118
REMARK   54  A    between atoms: _118  and  _119
REMARK   55  A    between atoms: _118  and  _121
REMARK   56  A    between atoms: _121  and  _122
REMARK   57  A    between atoms: _127  and  _128
REMARK   58  A    between atoms: _130  and  _132
REMARK   59  A    between atoms: _132  and  _133
REMARK   60  A    between atoms: _136  and  _138
REMARK   61  A    between atoms: _138  and  _139
REMARK   62  A    between atoms: _142  and  _144
REMARK   63  A    between atoms: _144  and  _145
REMARK   64  A    between atoms: _144  and  _147
REMARK   65  A    between atoms: _147  and  _148
REMARK   66  A    between atoms: _151  and  _153
REMARK   67  A    between atoms: _153  and  _154
REMARK   68  A    between atoms: _153  and  _156
REMARK   69  A    between atoms: _156  and  _157
REMARK   70  A    between atoms: _160  and  _162
REMARK   71  A    between atoms: _162  and  _163
REMARK   72  A    between atoms: _162  and  _165
REMARK   73  A    between atoms: _165  and  _166
REMARK   74  A    between atoms: _168  and  _170
REMARK   75  A    between atoms: _170  and  _171
REMARK   76  A    between atoms: _170  and  _173
REMARK   77  A    between atoms: _173  and  _174
REMARK   78  A    between atoms: _174  and  _293
REMARK   79  A    between atoms: _175  and  _177
REMARK   80  A    between atoms: _177  and  _178
REMARK   81  A    between atoms: _177  and  _180
REMARK   82  A    between atoms: _180  and  _181
REMARK   83  A    between atoms: _181  and  _182
REMARK   84  A    between atoms: _187  and  _189
REMARK   85  A    between atoms: _189  and  _190
REMARK   86  A    between atoms: _192  and  _194
REMARK   87  A    between atoms: _194  and  _195
REMARK   88  A    between atoms: _194  and  _197
REMARK   89  A    between atoms: _197  and  _198
REMARK   90  A    between atoms: _201  and  _203
REMARK   91  A    between atoms: _203  and  _204
REMARK   92  A    between atoms: _203  and  _206
REMARK   93  A    between atoms: _206  and  _207
REMARK   94  A    between atoms: _209  and  _211
REMARK   95  A    between atoms: _211  and  _212
REMARK   96  A    between atoms: _214  and  _216
REMARK   97  A    between atoms: _216  and  _217
REMARK   98  A    between atoms: _219  and  _221
REMARK   99  A    between atoms: _221  and  _222
REMARK  100  A    between atoms: _221  and  _224
REMARK  101  A    between atoms: _224  and  _225
REMARK  102  A    between atoms: _228  and  _230
REMARK  103  A    between atoms: _230  and  _231
REMARK  104  A    between atoms: _230  and  _233
REMARK  105  A    between atoms: _236  and  _238
REMARK  106  A    between atoms: _238  and  _239
REMARK  107  A    between atoms: _238  and  _241
REMARK  108  A    between atoms: _241  and  _242
REMARK  109  A    between atoms: _244  and  _246
REMARK  110  A    between atoms: _246  and  _247
REMARK  111  A    between atoms: _246  and  _249
REMARK  112  A    between atoms: _249  and  _250
REMARK  113  A    between atoms: _260  and  _262
REMARK  114  A    between atoms: _262  and  _263
REMARK  115  A    between atoms: _265  and  _267
REMARK  116  A    between atoms: _267  and  _268
REMARK  117  A    between atoms: _267  and  _270
REMARK  118  A    between atoms: _270  and  _271
REMARK  119  A    between atoms: _271  and  _272
REMARK  120  A    between atoms: _272  and  _273
REMARK  121  A    between atoms: _282  and  _284
REMARK  122  A    between atoms: _284  and  _285
REMARK  123  A    between atoms: _287  and  _289
REMARK  124  A    between atoms: _289  and  _290
REMARK  125  A    between atoms: _289  and  _292
REMARK  126  A    between atoms: _292  and  _293
REMARK  127  A    between atoms: _294  and  _296
REMARK  128  A    between atoms: _296  and  _297
REMARK  129  A    between atoms: _300  and  _302
REMARK  130  A    between atoms: _302  and  _303
REMARK  131  A    between atoms: _302  and  _305
REMARK  132  A    between atoms: _305  and  _306
REMARK  133  A    between atoms: _309  and  _311
REMARK  134  A    between atoms: _311  and  _312
REMARK  135  A    between atoms: _311  and  _314
REMARK  136  A    between atoms: _314  and  _315
REMARK  137  A    between atoms: _315  and  _316
REMARK  138  A    between atoms: _316  and  _317
REMARK  139  A    between atoms: _317  and  _318
REMARK  140  A    between atoms: _323  and  _324
REMARK  141  A    between atoms: _329  and  _331
REMARK  142  A    between atoms: _331  and  _332
REMARK  143  A    between atoms: _334  and  _336
REMARK  144  A    between atoms: _336  and  _337
REMARK  145  A    between atoms: _336  and  _339
REMARK  146  A    between atoms: _342  and  _344
REMARK  147  A    between atoms: _344  and  _345
REMARK  148  A    between atoms: _344  and  _347
REMARK  149  A    between atoms: _347  and  _348
REMARK  150  A    between atoms: _353  and  _354
REMARK                            x       y       z     vdW  Elec       q    Type
REMARK                         _______ _______ _______ _____ _____    ______ ____
ROOT
ATOM      1  CG  TYR A   1      -1.429  -1.338  24.529  0.00  0.00    -0.020 A 
ATOM      2  CD2 TYR A   1      -1.180  -0.484  25.575  0.00  0.00    -0.001 A 
ATOM      3  CE2 TYR A   1       0.054  -0.435  26.155  0.00  0.00    +0.036 A 
ATOM      4  CZ  TYR A   1       1.068  -1.225  25.716  0.00  0.00    +0.134 A 
ATOM      5  CE1 TYR A   1       0.835  -2.089  24.669  0.00  0.00    +0.036 A 
ATOM      6  CD1 TYR A   1      -0.408  -2.150  24.074  0.00  0.00    -0.001 A 
ENDROOT
BRANCH   4   7
ATOM      7  OH  TYR A   1       2.290  -1.113  26.340  0.00  0.00    -0.506 OA
ATOM      8  HH  TYR A   1       2.543  -1.988  26.727  0.00  0.00    +0.292 HD
ENDBRANCH   4   7
BRANCH   1   9
ATOM      9  CB  TYR A   1      -2.808  -1.355  23.887  0.00  0.00    +0.051 C 
BRANCH   9  10
ATOM     10  CA  TYR A   1      -3.952  -1.486  24.927  0.00  0.00    +0.137 C 
BRANCH  10  11
ATOM     11  N   TYR A   1      -3.885  -2.816  25.617  0.00  0.00    -0.239 NA
ATOM     12  H   TYR A   1      -3.919  -3.693  25.060  0.00  0.00    +0.142 HD
ENDBRANCH  10  11
BRANCH  10  13
ATOM     13  C   TYR A   1      -5.265  -1.252  24.190  0.00  0.00    +0.224 C 
ATOM     14  O   TYR A   1      -5.390  -0.237  23.523  0.00  0.00    -0.287 OA
ENDBRANCH  10  13
ENDBRANCH   9  10
ENDBRANCH   1   9
TORSDOF 5
REMARK  Name = ../refined-set-2016/1c5y/1c5y_pocket.pdb
REMARK  150 active torsions:
REMARK  status: ('A' for Active; 'I' for Inactive)
REMARK    1  A    between atoms: _1  and  _3
REMARK    2  A    between atoms: _3  and  _4
REMARK    3  A    between atoms: _3  and  _6
REMARK    4  A    between atoms: _6  and  _7
REMARK    5  A    between atoms: _10  and  _12
REMARK    6  A    between atoms: _12  and  _13
REMARK    7  A    between atoms: _12  and  _15
REMARK    8  A    between atoms: _15  and  _16
REMARK    9  A    between atoms: _16  and  _34
REMARK   10  A    between atoms: _17  and  _19
REMARK   11  A    between atoms: _19  and  _20
REMARK   12  A    between atoms: _19  and  _22
REMARK   13  A    between atoms: _22  and  _23
REMARK   14  A    between atoms: _28  and  _30
REMARK   15  A    between atoms: _30  and  _31
REMARK   16  A    between atoms: _30  and  _33
REMARK   17  A    between atoms: _33  and  _34
REMARK   18  A    between atoms: _35  and  _37
REMARK   19  A    between atoms: _37  and  _38
REMARK   20  A    between atoms: _37  and  _40
REMARK   21  A    between atoms: _40  and  _41
REMARK   22  A    between atoms: _44  and  _46
REMARK   23  A    between atoms: _46  and  _47
REMARK   24  A    between atoms: _46  and  _49
REMARK   25  A    between atoms: _49  and  _50
REMARK   26  A    between atoms: _55  and  _57
REMARK   27  A    between atoms: _57  and  _58
REMARK   28  A    between atoms: _57  and  _60
REMARK   29  A    between atoms: _60  and  _61
REMARK   30  A    between atoms: _64  and  _66
REMARK   31  A    between atoms: _66  and  _67
REMARK   32  A    between atoms: _66  and  _69
REMARK   33  A    between atoms: _69  and  _70
REMARK   34  A    between atoms: _73  and  _75
REMARK   35  A    between atoms: _75  and  _76
REMARK   36  A    between atoms: _75  and  _78
REMARK   37  A    between atoms: _78  and  _79
REMARK   38  A    between atoms: _79  and  _80
REMARK   39  A    between atoms: _80  and  _81
REMARK   40  A    between atoms: _81  and  _82
REMARK   41  A    between atoms: _86  and  _88
REMARK   42  A    between atoms: _88  and  _89
REMARK   43  A    between atoms: _88  and  _91
REMARK   44  A    between atoms: _91  and  _92
REMARK   45  A    between atoms: _94  and  _96
REMARK   46  A    between atoms: _96  and  _97
REMARK   47  A    between atoms: _96  and  _99
REMARK   48  A    between atoms: _99  and  _100
REMARK   49  A    between atoms: _105  and  _106
REMARK   50  A    between atoms: _108  and  _110
REMARK   51  A    between atoms: _110  and  _111
REMARK   52  A    between atoms: _110  and  _113
REMARK   53  A    between atoms: _116  and  _118
REMARK   54  A    between atoms: _118  and  _119
REMARK   55  A    between atoms: _118  and  _121
REMARK   56  A    between atoms: _121  and  _122
REMARK   57  A    between atoms: _127  and  _128
REMARK   58  A    between atoms: _130  and  _132
REMARK   59  A    between atoms: _132  and  _133
REMARK   60  A    between atoms: _136  and  _138
REMARK   61  A    between atoms: _138  and  _139
REMARK   62  A    between atoms: _142  and  _144
REMARK   63  A    between atoms: _144  and  _145
REMARK   64  A    between atoms: _144  and  _147
REMARK   65  A    between atoms: _147  and  _148
REMARK   66  A    between atoms: _151  and  _153
REMARK   67  A    between atoms: _153  and  _154
REMARK   68  A    between atoms: _153  and  _156
REMARK   69  A    between atoms: _156  and  _157
REMARK   70  A    between atoms: _160  and  _162
REMARK   71  A    between atoms: _162  and  _163
REMARK   72  A    between atoms: _162  and  _165
REMARK   73  A    between atoms: _165  and  _166
REMARK   74  A    between atoms: _168  and  _170
REMARK   75  A    between atoms: _170  and  _171
REMARK   76  A    between atoms: _170  and  _173
REMARK   77  A    between atoms: _173  and  _174
REMARK   78  A    between atoms: _174  and  _293
REMARK   79  A    between atoms: _175  and  _177
REMARK   80  A    between atoms: _177  and  _178
REMARK   81  A    between atoms: _177  and  _180
REMARK   82  A    between atoms: _180  and  _181
REMARK   83  A    between atoms: _181  and  _182
REMARK   84  A    between atoms: _187  and  _189
REMARK   85  A    between atoms: _189  and  _190
REMARK   86  A    between atoms: _192  and  _194
REMARK   87  A    between atoms: _194  and  _195
REMARK   88  A    between atoms: _194  and  _197
REMARK   89  A    between atoms: _197  and  _198
REMARK   90  A    between atoms: _201  and  _203
REMARK   91  A    between atoms: _203  and  _204
REMARK   92  A    between atoms: _203  and  _206
REMARK   93  A    between atoms: _206  and  _207
REMARK   94  A    between atoms: _209  and  _211
REMARK   95  A    between atoms: _211  and  _212
REMARK   96  A    between atoms: _214  and  _216
REMARK   97  A    between atoms: _216  and  _217
REMARK   98  A    between atoms: _219  and  _221
REMARK   99  A    between atoms: _221  and  _222
REMARK  100  A    between atoms: _221  and  _224
REMARK  101  A    between atoms: _224  and  _225
REMARK  102  A    between atoms: _228  and  _230
REMARK  103  A    between atoms: _230  and  _231
REMARK  104  A    between atoms: _230  and  _233
REMARK  105  A    between atoms: _236  and  _238
REMARK  106  A    between atoms: _238  and  _239
REMARK  107  A    between atoms: _238  and  _241
REMARK  108  A    between atoms: _241  and  _242
REMARK  109  A    between atoms: _244  and  _246
REMARK  110  A    between atoms: _246  and  _247
REMARK  111  A    between atoms: _246  and  _249
REMARK  112  A    between atoms: _249  and  _250
REMARK  113  A    between atoms: _260  and  _262
REMARK  114  A    between atoms: _262  and  _263
REMARK  115  A    between atoms: _265  and  _267
REMARK  116  A    between atoms: _267  and  _268
REMARK  117  A    between atoms: _267  and  _270
REMARK  118  A    between atoms: _270  and  _271
REMARK  119  A    between atoms: _271  and  _272
REMARK  120  A    between atoms: _272  and  _273
REMARK  121  A    between atoms: _282  and  _284
REMARK  122  A    between atoms: _284  and  _285
REMARK  123  A    between atoms: _287  and  _289
REMARK  124  A    between atoms: _289  and  _290
REMARK  125  A    between atoms: _289  and  _292
REMARK  126  A    between atoms: _292  and  _293
REMARK  127  A    between atoms: _294  and  _296
REMARK  128  A    between atoms: _296  and  _297
REMARK  129  A    between atoms: _300  and  _302
REMARK  130  A    between atoms: _302  and  _303
REMARK  131  A    between atoms: _302  and  _305
REMARK  132  A    between atoms: _305  and  _306
REMARK  133  A    between atoms: _309  and  _311
REMARK  134  A    between atoms: _311  and  _312
REMARK  135  A    between atoms: _311  and  _314
REMARK  136  A    between atoms: _314  and  _315
REMARK  137  A    between atoms: _315  and  _316
REMARK  138  A    between atoms: _316  and  _317
REMARK  139  A    between atoms: _317  and  _318
REMARK  140  A    between atoms: _323  and  _324
REMARK  141  A    between atoms: _329  and  _331
REMARK  142  A    between atoms: _331  and  _332
REMARK  143  A    between atoms: _334  and  _336
REMARK  144  A    between atoms: _336  and  _337
REMARK  145  A    between atoms: _336  and  _339
REMARK  146  A    between atoms: _342  and  _344
REMARK  147  A    between atoms: _344  and  _345
REMARK  148  A    between atoms: _344  and  _347
REMARK  149  A    between atoms: _347  and  _348
REMARK  150  A    between atoms: _353  and  _354
REMARK                            x       y       z     vdW  Elec       q    Type
REMARK                         _______ _______ _______ _____ _____    ______ ____
ROOT
ATOM      1  C   ALA A   1       6.107  -8.610  23.366  0.00  0.00    +0.238 C 
ATOM      2  N   ALA A   2       6.138  -9.649  24.139  0.00  0.00    -0.298 N 
ATOM      3  H   ALA A   2       5.975 -10.597  23.744  0.00  0.00    +0.150 HD
ATOM      4  O   ALA A   1       6.284  -7.477  23.775  0.00  0.00    -0.274 OA
ENDROOT
BRANCH   1   5
ATOM      5  CA  ALA A   1       5.848  -8.782  21.887  0.00  0.00    +0.145 C 
ATOM      6  CB  ALA A   1       7.208  -8.690  21.146  0.00  0.00    +0.028 C 
BRANCH   5   7
ATOM      7  N   ALA A   1       4.936  -7.689  21.463  0.00  0.00    -0.238 NA
ATOM      8  H   ALA A   1       5.044  -6.740  21.874  0.00  0.00    +0.142 HD
ENDBRANCH   5   7
ENDBRANCH   1   5
BRANCH   2   9
ATOM      9  CA  ALA A   2       6.408  -9.483  25.601  0.00  0.00    +0.137 C 
ATOM     10  CB  ALA A   2       5.120  -9.323  26.363  0.00  0.00    +0.030 C 
BRANCH   9  11
ATOM     11  C   ALA A   2       7.135 -10.717  26.126  0.00  0.00    +0.227 C 
ATOM     12  O   ALA A   2       7.386 -11.656  25.397  0.00  0.00    -0.286 OA
ENDBRANCH   9  11
ENDBRANCH   2   9
TORSDOF 4
REMARK  Name = ../refined-set-2016/1c5y/1c5y_pocket.pdb
REMARK  150 active torsions:
REMARK  status: ('A' for Active; 'I' for Inactive)
REMARK    1  A    between atoms: _1  and  _3
REMARK    2  A    between atoms: _3  and  _4
REMARK    3  A    between atoms: _3  and  _6
REMARK    4  A    between atoms: _6  and  _7
REMARK    5  A    between atoms: _10  and  _12
REMARK    6  A    between atoms: _12  and  _13
REMARK    7  A    between atoms: _12  and  _15
REMARK    8  A    between atoms: _15  and  _16
REMARK    9  A    between atoms: _16  and  _34
REMARK   10  A    between atoms: _17  and  _19
REMARK   11  A    between atoms: _19  and  _20
REMARK   12  A    between atoms: _19  and  _22
REMARK   13  A    between atoms: _22  and  _23
REMARK   14  A    between atoms: _28  and  _30
REMARK   15  A    between atoms: _30  and  _31
REMARK   16  A    between atoms: _30  and  _33
REMARK   17  A    between atoms: _33  and  _34
REMARK   18  A    between atoms: _35  and  _37
REMARK   19  A    between atoms: _37  and  _38
REMARK   20  A    between atoms: _37  and  _40
REMARK   21  A    between atoms: _40  and  _41
REMARK   22  A    between atoms: _44  and  _46
REMARK   23  A    between atoms: _46  and  _47
REMARK   24  A    between atoms: _46  and  _49
REMARK   25  A    between atoms: _49  and  _50
REMARK   26  A    between atoms: _55  and  _57
REMARK   27  A    between atoms: _57  and  _58
REMARK   28  A    between atoms: _57  and  _60
REMARK   29  A    between atoms: _60  and  _61
REMARK   30  A    between atoms: _64  and  _66
REMARK   31  A    between atoms: _66  and  _67
REMARK   32  A    between atoms: _66  and  _69
REMARK   33  A    between atoms: _69  and  _70
REMARK   34  A    between atoms: _73  and  _75
REMARK   35  A    between atoms: _75  and  _76
REMARK   36  A    between atoms: _75  and  _78
REMARK   37  A    between atoms: _78  and  _79
REMARK   38  A    between atoms: _79  and  _80
REMARK   39  A    between atoms: _80  and  _81
REMARK   40  A    between atoms: _81  and  _82
REMARK   41  A    between atoms: _86  and  _88
REMARK   42  A    between atoms: _88  and  _89
REMARK   43  A    between atoms: _88  and  _91
REMARK   44  A    between atoms: _91  and  _92
REMARK   45  A    between atoms: _94  and  _96
REMARK   46  A    between atoms: _96  and  _97
REMARK   47  A    between atoms: _96  and  _99
REMARK   48  A    between atoms: _99  and  _100
REMARK   49  A    between atoms: _105  and  _106
REMARK   50  A    between atoms: _108  and  _110
REMARK   51  A    between atoms: _110  and  _111
REMARK   52  A    between atoms: _110  and  _113
REMARK   53  A    between atoms: _116  and  _118
REMARK   54  A    between atoms: _118  and  _119
REMARK   55  A    between atoms: _118  and  _121
REMARK   56  A    between atoms: _121  and  _122
REMARK   57  A    between atoms: _127  and  _128
REMARK   58  A    between atoms: _130  and  _132
REMARK   59  A    between atoms: _132  and  _133
REMARK   60  A    between atoms: _136  and  _138
REMARK   61  A    between atoms: _138  and  _139
REMARK   62  A    between atoms: _142  and  _144
REMARK   63  A    between atoms: _144  and  _145
REMARK   64  A    between atoms: _144  and  _147
REMARK   65  A    between atoms: _147  and  _148
REMARK   66  A    between atoms: _151  and  _153
REMARK   67  A    between atoms: _153  and  _154
REMARK   68  A    between atoms: _153  and  _156
REMARK   69  A    between atoms: _156  and  _157
REMARK   70  A    between atoms: _160  and  _162
REMARK   71  A    between atoms: _162  and  _163
REMARK   72  A    between atoms: _162  and  _165
REMARK   73  A    between atoms: _165  and  _166
REMARK   74  A    between atoms: _168  and  _170
REMARK   75  A    between atoms: _170  and  _171
REMARK   76  A    between atoms: _170  and  _173
REMARK   77  A    between atoms: _173  and  _174
REMARK   78  A    between atoms: _174  and  _293
REMARK   79  A    between atoms: _175  and  _177
REMARK   80  A    between atoms: _177  and  _178
REMARK   81  A    between atoms: _177  and  _180
REMARK   82  A    between atoms: _180  and  _181
REMARK   83  A    between atoms: _181  and  _182
REMARK   84  A    between atoms: _187  and  _189
REMARK   85  A    between atoms: _189  and  _190
REMARK   86  A    between atoms: _192  and  _194
REMARK   87  A    between atoms: _194  and  _195
REMARK   88  A    between atoms: _194  and  _197
REMARK   89  A    between atoms: _197  and  _198
REMARK   90  A    between atoms: _201  and  _203
REMARK   91  A    between atoms: _203  and  _204
REMARK   92  A    between atoms: _203  and  _206
REMARK   93  A    between atoms: _206  and  _207
REMARK   94  A    between atoms: _209  and  _211
REMARK   95  A    between atoms: _211  and  _212
REMARK   96  A    between atoms: _214  and  _216
REMARK   97  A    between atoms: _216  and  _217
REMARK   98  A    between atoms: _219  and  _221
REMARK   99  A    between atoms: _221  and  _222
REMARK  100  A    between atoms: _221  and  _224
REMARK  101  A    between atoms: _224  and  _225
REMARK  102  A    between atoms: _228  and  _230
REMARK  103  A    between atoms: _230  and  _231
REMARK  104  A    between atoms: _230  and  _233
REMARK  105  A    between atoms: _236  and  _238
REMARK  106  A    between atoms: _238  and  _239
REMARK  107  A    between atoms: _238  and  _241
REMARK  108  A    between atoms: _241  and  _242
REMARK  109  A    between atoms: _244  and  _246
REMARK  110  A    between atoms: _246  and  _247
REMARK  111  A    between atoms: _246  and  _249
REMARK  112  A    between atoms: _249  and  _250
REMARK  113  A    between atoms: _260  and  _262
REMARK  114  A    between atoms: _262  and  _263
REMARK  115  A    between atoms: _265  and  _267
REMARK  116  A    between atoms: _267  and  _268
REMARK  117  A    between atoms: _267  and  _270
REMARK  118  A    between atoms: _270  and  _271
REMARK  119  A    between atoms: _271  and  _272
REMARK  120  A    between atoms: _272  and  _273
REMARK  121  A    between atoms: _282  and  _284
REMARK  122  A    between atoms: _284  and  _285
REMARK  123  A    between atoms: _287  and  _289
REMARK  124  A    between atoms: _289  and  _290
REMARK  125  A    between atoms: _289  and  _292
REMARK  126  A    between atoms: _292  and  _293
REMARK  127  A    between atoms: _294  and  _296
REMARK  128  A    between atoms: _296  and  _297
REMARK  129  A    between atoms: _300  and  _302
REMARK  130  A    between atoms: _302  and  _303
REMARK  131  A    between atoms: _302  and  _305
REMARK  132  A    between atoms: _305  and  _306
REMARK  133  A    between atoms: _309  and  _311
REMARK  134  A    between atoms: _311  and  _312
REMARK  135  A    between atoms: _311  and  _314
REMARK  136  A    between atoms: _314  and  _315
REMARK  137  A    between atoms: _315  and  _316
REMARK  138  A    between atoms: _316  and  _317
REMARK  139  A    between atoms: _317  and  _318
REMARK  140  A    between atoms: _323  and  _324
REMARK  141  A    between atoms: _329  and  _331
REMARK  142  A    between atoms: _331  and  _332
REMARK  143  A    between atoms: _334  and  _336
REMARK  144  A    between atoms: _336  and  _337
REMARK  145  A    between atoms: _336  and  _339
REMARK  146  A    between atoms: _342  and  _344
REMARK  147  A    between atoms: _344  and  _345
REMARK  148  A    between atoms: _344  and  _347
REMARK  149  A    between atoms: _347  and  _348
REMARK  150  A    between atoms: _353  and  _354
REMARK                            x       y       z     vdW  Elec       q    Type
REMARK                         _______ _______ _______ _____ _____    ______ ____
ROOT
ATOM      1  CA  SER A   8       8.749  -0.756  30.487  0.00  0.00    +0.160 C 
ENDROOT
BRANCH   1   2
ATOM      2  N   SER A   8       7.812   0.218  31.068  0.00  0.00    -0.296 N 
ATOM      3  H   SER A   8       7.787   0.371  32.096  0.00  0.00    +0.150 HD
ATOM      4  C   ASP A   7       7.022   0.881  30.295  0.00  0.00    +0.243 C 
ATOM      5  O   ASP A   7       7.010   0.749  29.083  0.00  0.00    -0.273 OA
BRANCH   4   6
ATOM      6  CA  ASP A   7       6.090   1.856  30.992  0.00  0.00    +0.176 C 
BRANCH   6   7
ATOM      7  N   ASP A   7       5.098   2.273  29.985  0.00  0.00    -0.295 N 
ATOM      8  H   ASP A   7       5.028   3.272  29.704  0.00  0.00    +0.150 HD
ATOM      9  C   GLY A   6       4.310   1.388  29.448  0.00  0.00    +0.241 C 
ATOM     10  O   GLY A   6       4.316   0.200  29.724  0.00  0.00    -0.273 OA
BRANCH   9  11
ATOM     11  CA  GLY A   6       3.334   1.934  28.418  0.00  0.00    +0.149 C 
BRANCH  11  12
ATOM     12  N   GLY A   6       3.703   1.167  27.197  0.00  0.00    -0.297 N 
ATOM     13  H   GLY A   6       3.359   0.195  27.064  0.00  0.00    +0.150 HD
ATOM     14  C   GLN A   5       4.461   1.725  26.297  0.00  0.00    +0.243 C 
ATOM     15  O   GLN A   5       4.876   2.868  26.404  0.00  0.00    -0.273 OA
BRANCH  14  16
ATOM     16  CA  GLN A   5       4.823   0.912  25.067  0.00  0.00    +0.176 C 
BRANCH  16  17
ATOM     17  N   GLN A   5       5.214   1.871  24.006  0.00  0.00    -0.295 N 
ATOM     18  H   GLN A   5       5.132   2.894  24.172  0.00  0.00    +0.150 HD
ATOM     19  C   TRP A   4       5.656   1.433  22.877  0.00  0.00    +0.241 C 
ATOM     20  O   TRP A   4       5.770   0.246  22.628  0.00  0.00    -0.273 OA
BRANCH  19  21
ATOM     21  CA  TRP A   4       6.019   2.504  21.869  0.00  0.00    +0.153 C 
BRANCH  21  22
ATOM     22  N   TRP A   4       6.519   1.912  20.578  0.00  0.00    -0.297 N 
ATOM     23  H   TRP A   4       6.239   0.948  20.306  0.00  0.00    +0.150 HD
ATOM     24  C   SER A   3       7.310   2.612  19.793  0.00  0.00    +0.243 C 
ATOM     25  O   SER A   3       7.633   3.748  20.073  0.00  0.00    -0.273 OA
BRANCH  24  26
ATOM     26  CA  SER A   3       7.847   2.027  18.452  0.00  0.00    +0.178 C 
BRANCH  26  27
ATOM     27  N   SER A   3       8.686   0.794  18.630  0.00  0.00    -0.295 N 
ATOM     28  H   SER A   3       8.273  -0.022  19.125  0.00  0.00    +0.150 HD
ATOM     29  C   VAL A   2       9.911   0.702  18.190  0.00  0.00    +0.241 C 
ATOM     30  O   VAL A   2      10.474   1.613  17.594  0.00  0.00    -0.273 OA
BRANCH  29  31
ATOM     31  CA  VAL A   2      10.660  -0.669  18.446  0.00  0.00    +0.148 C 
BRANCH  31  32
ATOM     32  N   VAL A   2      11.131  -1.109  17.100  0.00  0.00    -0.297 N 
ATOM     33  H   VAL A   2      12.145  -1.258  16.926  0.00  0.00    +0.150 HD
ATOM     34  C   ILE A   1      10.269  -1.306  16.143  0.00  0.00    +0.238 C 
ATOM     35  O   ILE A   1       9.063  -1.150  16.270  0.00  0.00    -0.274 OA
BRANCH  34  36
ATOM     36  CA  ILE A   1      10.802  -1.754  14.783  0.00  0.00    +0.145 C 
BRANCH  36  37
ATOM     37  N   ILE A   1       9.904  -2.889  14.463  0.00  0.00    -0.238 NA
ATOM     38  H   ILE A   1       8.878  -2.729  14.413  0.00  0.00    +0.142 HD
ENDBRANCH  36  37
BRANCH  36  39
ATOM     39  CB  ILE A   1      10.631  -0.639  13.701  0.00  0.00    +0.025 C 
ATOM     40  CG2 ILE A   1      11.497   0.605  14.051  0.00  0.00    +0.002 C 
BRANCH  39  41
ATOM     41  CG1 ILE A   1      11.045  -1.229  12.336  0.00  0.00    +0.002 C 
ATOM     42  CD1 ILE A   1      10.868  -0.219  11.187  0.00  0.00    +0.000 C 
ENDBRANCH  39  41
ENDBRANCH  36  39
ENDBRANCH  34  36
ENDBRANCH  31  32
BRANCH  31  43
ATOM     43  CB  VAL A   2      11.928  -0.514  19.399  0.00  0.00    +0.027 C 
ATOM     44  CG2 VAL A   2      11.450  -0.175  20.803  0.00  0.00    +0.002 C 
ATOM     45  CG1 VAL A   2      12.770  -1.829  19.554  0.00  0.00    +0.002 C 
ENDBRANCH  31  43
ENDBRANCH  29  31
ENDBRANCH  26  27
BRANCH  26  46
ATOM     46  CB  SER A   3       6.695   1.614  17.454  0.00  0.00    +0.166 C 
BRANCH  46  47
ATOM     47  OG  SER A   3       5.820   2.723  17.265  0.00  0.00    -0.380 OA
ATOM     48  H   SER A   3       6.330   3.484  16.889  0.00  0.00    +0.211 HD
ENDBRANCH  46  47
ENDBRANCH  26  46
ENDBRANCH  24  26
ENDBRANCH  21  22
BRANCH  21  49
ATOM     49  CB  TRP A   4       4.765   3.365  21.653  0.00  0.00    +0.057 C 
BRANCH  49  50
ATOM     50  CG  TRP A   4       3.624   2.697  20.855  0.00  0.00    -0.002 A 
ATOM     51  CD2 TRP A   4       2.462   2.194  21.375  0.00  0.00    +0.013 A 
ATOM     52  CE3 TRP A   4       1.996   2.095  22.687  0.00  0.00    +0.001 A 
ATOM     53  CZ3 TRP A   4       0.751   1.531  22.944  0.00  0.00    +0.000 A 
ATOM     54  CH2 TRP A   4      -0.034   1.067  21.909  0.00  0.00    +0.001 A 
ATOM     55  CZ2 TRP A   4       0.420   1.158  20.600  0.00  0.00    +0.017 A 
ATOM     56  CE2 TRP A   4       1.667   1.718  20.334  0.00  0.00    +0.056 A 
ATOM     57  NE1 TRP A   4       2.420   1.969  19.275  0.00  0.00    -0.352 N 
ATOM     58  HE1 TRP A   4       2.107   1.726  18.313  0.00  0.00    +0.166 HD
ATOM     59  CD1 TRP A   4       3.585   2.541  19.498  0.00  0.00    +0.068 A 
ENDBRANCH  49  50
ENDBRANCH  21  49
ENDBRANCH  19  21
ENDBRANCH  16  17
ENDBRANCH  14  16
ENDBRANCH  11  12
BRANCH  11  60
ATOM     60  CB  GLY A   6       1.890   1.641  28.908  0.00  0.00    +0.033 C 
BRANCH  60  61
ATOM     61  CG  GLY A   6       1.680   2.525  30.183  0.00  0.00    +0.045 C 
BRANCH  61  62
ATOM     62  CD  GLY A   6       0.353   2.262  30.900  0.00  0.00    +0.174 C 
BRANCH  62  63
ATOM     63  NE  GLY A   6       0.424   3.031  32.184  0.00  0.00    -0.265 N 
ATOM     64  CZ  GLY A   6       0.540   2.463  33.361  0.00  0.00    +0.342 C 
ATOM     65  NH2 GLY A   6       0.587   3.245  34.406  0.00  0.00    -0.292 N 
ATOM     66 HH21 GLY A   6       0.679   2.836  35.358  0.00  0.00    +0.255 HD
ATOM     67 HH22 GLY A   6       0.533   4.277  34.286  0.00  0.00    +0.255 HD
ATOM     68  NH1 GLY A   6       0.611   1.164  33.488  0.00  0.00    -0.292 N 
ATOM     69 HH11 GLY A   6       0.703   0.738  34.432  0.00  0.00    +0.255 HD
ATOM     70 HH12 GLY A   6       0.576   0.556  32.645  0.00  0.00    +0.255 HD
ATOM     71  HE  GLY A   6       0.379   4.069  32.140  0.00  0.00    +0.259 HD
ENDBRANCH  62  63
ENDBRANCH  61  62
ENDBRANCH  60  61
ENDBRANCH  11  60
ENDBRANCH   9  11
ENDBRANCH   6   7
ENDBRANCH   4   6
ENDBRANCH   1   2
BRANCH   1  72
ATOM     72  C   SER A   8       8.665  -1.949  31.421  0.00  0.00    +0.242 C 
ATOM     73  O   SER A   8       8.711  -1.793  32.628  0.00  0.00    -0.273 OA
ATOM     74  N   GLY A   9       8.548  -3.082  30.786  0.00  0.00    -0.297 N 
ATOM     75  H   GLY A   9       8.532  -3.042  29.747  0.00  0.00    +0.150 HD
BRANCH  74  76
ATOM     76  CA  GLY A   9       8.435  -4.438  31.419  0.00  0.00    +0.149 C 
ATOM     77  CB  GLY A   9       9.786  -4.821  32.171  0.00  0.00    +0.031 C 
BRANCH  76  78
ATOM     78  C   GLY A   9       7.264  -4.400  32.398  0.00  0.00    +0.241 C 
ATOM     79  O   GLY A   9       7.361  -4.914  33.498  0.00  0.00    -0.273 OA
ATOM     80  N   GLY A  10       6.190  -3.800  31.968  0.00  0.00    -0.298 N 
ATOM     81  H   GLY A  10       6.175  -3.384  31.015  0.00  0.00    +0.150 HD
BRANCH  80  82
ATOM     82  CA  GLY A  10       4.989  -3.709  32.835  0.00  0.00    +0.137 C 
BRANCH  82  83
ATOM     83  C   GLY A  10       4.008  -4.827  32.424  0.00  0.00    +0.227 C 
ATOM     84  O   GLY A  10       3.744  -5.085  31.258  0.00  0.00    -0.286 OA
ENDBRANCH  82  83
BRANCH  82  85
ATOM     85  CB  GLY A  10       4.283  -2.353  32.655  0.00  0.00    +0.028 C 
BRANCH  85  86
ATOM     86  CG  GLY A  10       5.006  -1.168  33.350  0.00  0.00    +0.002 C 
ATOM     87  CD2 GLY A  10       5.240  -1.453  34.861  0.00  0.00    +0.000 C 
ATOM     88  CD1 GLY A  10       4.064   0.076  33.241  0.00  0.00    +0.000 C 
ENDBRANCH  85  86
ENDBRANCH  82  85
ENDBRANCH  80  82
ENDBRANCH  76  78
ENDBRANCH  74  76
ENDBRANCH   1  72
BRANCH   1  89
ATOM     89  CB  SER A   8      10.141  -0.173  30.466  0.00  0.00    +0.098 C 
BRANCH  89  90
ATOM     90  SG  SER A   8      10.417   1.347  29.540  0.00  0.00    -0.080 S 
BRANCH  90  91
ATOM     91  SG  TRP A   4      12.414   1.632  29.480  0.00  0.00    -0.080 S 
BRANCH  91  92
ATOM     92  CB  TRP A   4      12.948   0.622  28.083  0.00  0.00    +0.098 C 
BRANCH  92  93
ATOM     93  CA  TRP A   4      12.219   0.790  26.728  0.00  0.00    +0.160 C 
BRANCH  93  96
ATOM     94  C   SER A   3      11.955  -1.526  26.105  0.00  0.00    +0.243 C 
ATOM     95  O   SER A   3      11.149  -1.695  27.002  0.00  0.00    -0.273 OA
ATOM     96  N   TRP A   4      12.537  -0.384  25.880  0.00  0.00    -0.296 N 
ATOM     97  H   TRP A   4      13.225  -0.295  25.105  0.00  0.00    +0.150 HD
BRANCH  94  98
ATOM     98  CA  SER A   3      12.350  -2.714  25.171  0.00  0.00    +0.178 C 
BRANCH  98 101
ATOM     99  C   VAL A   2      12.231  -4.558  26.822  0.00  0.00    +0.241 C 
ATOM    100  O   VAL A   2      13.360  -4.398  27.276  0.00  0.00    -0.273 OA
ATOM    101  N   SER A   3      11.678  -3.848  25.855  0.00  0.00    -0.295 N 
ATOM    102  H   SER A   3      10.714  -4.098  25.555  0.00  0.00    +0.150 HD
BRANCH  99 103
ATOM    103  CA  VAL A   2      11.342  -5.669  27.409  0.00  0.00    +0.160 C 
BRANCH 103 106
ATOM    104  C   ILE A   1      11.647  -7.484  29.033  0.00  0.00    +0.241 C 
ATOM    105  O   ILE A   1      10.516  -7.932  28.825  0.00  0.00    -0.274 OA
ATOM    106  N   VAL A   2      12.142  -6.438  28.417  0.00  0.00    -0.297 N 
ATOM    107  H   VAL A   2      13.113  -6.134  28.633  0.00  0.00    +0.150 HD
BRANCH 104 108
ATOM    108  CA  ILE A   1      12.573  -8.163  30.066  0.00  0.00    +0.172 C 
BRANCH 108 109
ATOM    109  N   ILE A   1      11.641  -8.929  30.943  0.00  0.00    -0.236 NA
ATOM    110  H   ILE A   1      10.959  -9.592  30.522  0.00  0.00    +0.142 HD
ENDBRANCH 108 109
BRANCH 108 111
ATOM    111  CB  ILE A   1      13.603  -9.244  29.533  0.00  0.00    +0.135 C 
ATOM    112  CG2 ILE A   1      12.958 -10.390  28.734  0.00  0.00    +0.034 C 
BRANCH 111 113
ATOM    113  OG1 ILE A   1      14.482  -8.604  28.641  0.00  0.00    -0.383 OA
ATOM    114  HG1 ILE A   1      15.136  -9.262  28.295  0.00  0.00    +0.210 HD
ENDBRANCH 111 113
ENDBRANCH 108 111
ENDBRANCH 104 108
ENDBRANCH 103 106
BRANCH 103 115
ATOM    115  CB  VAL A   2      10.131  -5.046  28.168  0.00  0.00    +0.143 C 
BRANCH 115 116
ATOM    116  CG  VAL A   2       9.071  -4.330  27.324  0.00  0.00    +0.367 C 
ATOM    117  OD2 VAL A   2       8.295  -3.622  27.930  0.00  0.00    -0.246 OA
ATOM    118  OD1 VAL A   2       9.050  -4.503  26.131  0.00  0.00    -0.246 OA
ENDBRANCH 115 116
ENDBRANCH 103 115
ENDBRANCH  99 103
ENDBRANCH  98 101
BRANCH  98 119
ATOM    119  CB  SER A   3      11.762  -2.478  23.726  0.00  0.00    +0.166 C 
BRANCH 119 120
ATOM    120  OG  SER A   3      10.431  -2.976  23.727  0.00  0.00    -0.380 OA
ATOM    121  H   SER A   3      10.030  -2.844  22.832  0.00  0.00    +0.211 HD
ENDBRANCH 119 120
ENDBRANCH  98 119
ENDBRANCH  94  98
ENDBRANCH  93  96
BRANCH  93 122
ATOM    122  C   TRP A   4      12.733   1.994  25.957  0.00  0.00    +0.242 C 
ATOM    123  N   GLN A   5      12.502   3.124  26.562  0.00  0.00    -0.297 N 
ATOM    124  H   GLN A   5      12.004   3.093  27.475  0.00  0.00    +0.150 HD
ATOM    125  O   TRP A   4      13.308   1.849  24.891  0.00  0.00    -0.273 OA
BRANCH 123 126
ATOM    126  CA  GLN A   5      12.904   4.460  26.033  0.00  0.00    +0.149 C 
BRANCH 126 127
ATOM    127  C   GLN A   5      14.383   4.330  25.698  0.00  0.00    +0.241 C 
ATOM    128  O   GLN A   5      15.136   3.772  26.474  0.00  0.00    -0.273 OA
ATOM    129  N   GLY A   6      14.768   4.844  24.582  0.00  0.00    -0.295 N 
ATOM    130  H   GLY A   6      14.056   5.316  23.989  0.00  0.00    +0.150 HD
BRANCH 129 131
ATOM    131  CA  GLY A   6      16.170   4.802  24.093  0.00  0.00    +0.176 C 
BRANCH 131 132
ATOM    132  C   GLY A   6      16.306   3.603  23.134  0.00  0.00    +0.243 C 
ATOM    133  N   ASP A   7      15.362   2.692  23.136  0.00  0.00    -0.296 N 
ATOM    134  H   ASP A   7      14.542   2.784  23.770  0.00  0.00    +0.150 HD
ATOM    135  O   GLY A   6      17.271   3.503  22.398  0.00  0.00    -0.273 OA
BRANCH 133 136
ATOM    136  CA  ASP A   7      15.482   1.509  22.206  0.00  0.00    +0.160 C 
BRANCH 136 137
ATOM    137  C   ASP A   7      14.701   1.766  20.928  0.00  0.00    +0.241 C 
ATOM    138  N   SER A   8      13.983   2.857  20.891  0.00  0.00    -0.295 N 
ATOM    139  H   SER A   8      13.972   3.482  21.723  0.00  0.00    +0.150 HD
ATOM    140  O   ASP A   7      14.789   0.945  20.029  0.00  0.00    -0.273 OA
BRANCH 138 141
ATOM    141  CA  SER A   8      13.179   3.234  19.692  0.00  0.00    +0.178 C 
BRANCH 141 142
ATOM    142  C   SER A   8      13.932   3.100  18.386  0.00  0.00    +0.243 C 
ATOM    143  O   SER A   8      15.126   3.365  18.376  0.00  0.00    -0.273 OA
ATOM    144  N   GLY A   9      13.230   2.695  17.351  0.00  0.00    -0.295 N 
ATOM    145  H   GLY A   9      12.220   2.473  17.460  0.00  0.00    +0.150 HD
BRANCH 144 146
ATOM    146  CA  GLY A   9      13.883   2.556  16.032  0.00  0.00    +0.176 C 
BRANCH 146 147
ATOM    147  C   GLY A   9      14.670   1.278  15.807  0.00  0.00    +0.243 C 
ATOM    148  N   GLY A  10      15.011   0.609  16.875  0.00  0.00    -0.296 N 
ATOM    149  H   GLY A  10      14.737   0.950  17.818  0.00  0.00    +0.150 HD
ATOM    150  O   GLY A   9      14.944   0.934  14.668  0.00  0.00    -0.273 OA
BRANCH 148 151
ATOM    151  CA  GLY A  10      15.792  -0.641  16.730  0.00  0.00    +0.163 C 
BRANCH 151 152
ATOM    152  C   GLY A  10      14.945  -1.852  16.331  0.00  0.00    +0.229 C 
ATOM    153  O   GLY A  10      13.732  -1.770  16.261  0.00  0.00    -0.286 OA
ENDBRANCH 151 152
ENDBRANCH 148 151
ENDBRANCH 146 147
ENDBRANCH 144 146
ENDBRANCH 141 142
BRANCH 141 154
ATOM    154  CB  SER A   8      12.743   4.694  19.806  0.00  0.00    +0.166 C 
BRANCH 154 155
ATOM    155  OG  SER A   8      11.510   4.625  20.491  0.00  0.00    -0.380 OA
ATOM    156  H   SER A   8      11.149   5.539  20.611  0.00  0.00    +0.211 HD
ENDBRANCH 154 155
ENDBRANCH 141 154
ENDBRANCH 138 141
ENDBRANCH 136 137
BRANCH 136 157
ATOM    157  CB  ASP A   7      14.941   0.178  22.836  0.00  0.00    +0.143 C 
BRANCH 157 158
ATOM    158  CG  ASP A   7      15.845  -0.362  23.997  0.00  0.00    +0.367 C 
ATOM    159  OD2 ASP A   7      15.300  -0.717  25.030  0.00  0.00    -0.246 OA
ATOM    160  OD1 ASP A   7      17.051  -0.405  23.789  0.00  0.00    -0.246 OA
ENDBRANCH 157 158
ENDBRANCH 136 157
ENDBRANCH 133 136
ENDBRANCH 131 132
ENDBRANCH 129 131
ENDBRANCH 126 127
BRANCH 126 161
ATOM    161  CB  GLN A   5      12.727   5.571  27.113  0.00  0.00    +0.039 C 
BRANCH 161 162
ATOM    162  CG  GLN A   5      11.254   5.705  27.579  0.00  0.00    +0.087 C 
BRANCH 162 163
ATOM    163  CD  GLN A   5      11.241   6.417  28.942  0.00  0.00    +0.219 C 
ATOM    164  NE2 GLN A   5      10.809   5.799  30.000  0.00  0.00    -0.329 N 
ATOM    165 HE21 GLN A   5      10.809   6.282  30.921  0.00  0.00    +0.145 HD
ATOM    166 HE22 GLN A   5      10.463   4.821  29.926  0.00  0.00    +0.145 HD
ATOM    167  OE1 GLN A   5      11.633   7.554  29.079  0.00  0.00    -0.275 OA
ENDBRANCH 162 163
ENDBRANCH 161 162
ENDBRANCH 126 161
ENDBRANCH 123 126
ENDBRANCH  93 122
ENDBRANCH  92  93
ENDBRANCH  91  92
ENDBRANCH  90  91
ENDBRANCH  89  90
ENDBRANCH   1  89
TORSDOF 71
REMARK  Name = ../refined-set-2016/1c5y/1c5y_pocket.pdb
REMARK  150 active torsions:
REMARK  status: ('A' for Active; 'I' for Inactive)
REMARK    1  A    between atoms: _1  and  _3
REMARK    2  A    between atoms: _3  and  _4
REMARK    3  A    between atoms: _3  and  _6
REMARK    4  A    between atoms: _6  and  _7
REMARK    5  A    between atoms: _10  and  _12
REMARK    6  A    between atoms: _12  and  _13
REMARK    7  A    between atoms: _12  and  _15
REMARK    8  A    between atoms: _15  and  _16
REMARK    9  A    between atoms: _16  and  _34
REMARK   10  A    between atoms: _17  and  _19
REMARK   11  A    between atoms: _19  and  _20
REMARK   12  A    between atoms: _19  and  _22
REMARK   13  A    between atoms: _22  and  _23
REMARK   14  A    between atoms: _28  and  _30
REMARK   15  A    between atoms: _30  and  _31
REMARK   16  A    between atoms: _30  and  _33
REMARK   17  A    between atoms: _33  and  _34
REMARK   18  A    between atoms: _35  and  _37
REMARK   19  A    between atoms: _37  and  _38
REMARK   20  A    between atoms: _37  and  _40
REMARK   21  A    between atoms: _40  and  _41
REMARK   22  A    between atoms: _44  and  _46
REMARK   23  A    between atoms: _46  and  _47
REMARK   24  A    between atoms: _46  and  _49
REMARK   25  A    between atoms: _49  and  _50
REMARK   26  A    between atoms: _55  and  _57
REMARK   27  A    between atoms: _57  and  _58
REMARK   28  A    between atoms: _57  and  _60
REMARK   29  A    between atoms: _60  and  _61
REMARK   30  A    between atoms: _64  and  _66
REMARK   31  A    between atoms: _66  and  _67
REMARK   32  A    between atoms: _66  and  _69
REMARK   33  A    between atoms: _69  and  _70
REMARK   34  A    between atoms: _73  and  _75
REMARK   35  A    between atoms: _75  and  _76
REMARK   36  A    between atoms: _75  and  _78
REMARK   37  A    between atoms: _78  and  _79
REMARK   38  A    between atoms: _79  and  _80
REMARK   39  A    between atoms: _80  and  _81
REMARK   40  A    between atoms: _81  and  _82
REMARK   41  A    between atoms: _86  and  _88
REMARK   42  A    between atoms: _88  and  _89
REMARK   43  A    between atoms: _88  and  _91
REMARK   44  A    between atoms: _91  and  _92
REMARK   45  A    between atoms: _94  and  _96
REMARK   46  A    between atoms: _96  and  _97
REMARK   47  A    between atoms: _96  and  _99
REMARK   48  A    between atoms: _99  and  _100
REMARK   49  A    between atoms: _105  and  _106
REMARK   50  A    between atoms: _108  and  _110
REMARK   51  A    between atoms: _110  and  _111
REMARK   52  A    between atoms: _110  and  _113
REMARK   53  A    between atoms: _116  and  _118
REMARK   54  A    between atoms: _118  and  _119
REMARK   55  A    between atoms: _118  and  _121
REMARK   56  A    between atoms: _121  and  _122
REMARK   57  A    between atoms: _127  and  _128
REMARK   58  A    between atoms: _130  and  _132
REMARK   59  A    between atoms: _132  and  _133
REMARK   60  A    between atoms: _136  and  _138
REMARK   61  A    between atoms: _138  and  _139
REMARK   62  A    between atoms: _142  and  _144
REMARK   63  A    between atoms: _144  and  _145
REMARK   64  A    between atoms: _144  and  _147
REMARK   65  A    between atoms: _147  and  _148
REMARK   66  A    between atoms: _151  and  _153
REMARK   67  A    between atoms: _153  and  _154
REMARK   68  A    between atoms: _153  and  _156
REMARK   69  A    between atoms: _156  and  _157
REMARK   70  A    between atoms: _160  and  _162
REMARK   71  A    between atoms: _162  and  _163
REMARK   72  A    between atoms: _162  and  _165
REMARK   73  A    between atoms: _165  and  _166
REMARK   74  A    between atoms: _168  and  _170
REMARK   75  A    between atoms: _170  and  _171
REMARK   76  A    between atoms: _170  and  _173
REMARK   77  A    between atoms: _173  and  _174
REMARK   78  A    between atoms: _174  and  _293
REMARK   79  A    between atoms: _175  and  _177
REMARK   80  A    between atoms: _177  and  _178
REMARK   81  A    between atoms: _177  and  _180
REMARK   82  A    between atoms: _180  and  _181
REMARK   83  A    between atoms: _181  and  _182
REMARK   84  A    between atoms: _187  and  _189
REMARK   85  A    between atoms: _189  and  _190
REMARK   86  A    between atoms: _192  and  _194
REMARK   87  A    between atoms: _194  and  _195
REMARK   88  A    between atoms: _194  and  _197
REMARK   89  A    between atoms: _197  and  _198
REMARK   90  A    between atoms: _201  and  _203
REMARK   91  A    between atoms: _203  and  _204
REMARK   92  A    between atoms: _203  and  _206
REMARK   93  A    between atoms: _206  and  _207
REMARK   94  A    between atoms: _209  and  _211
REMARK   95  A    between atoms: _211  and  _212
REMARK   96  A    between atoms: _214  and  _216
REMARK   97  A    between atoms: _216  and  _217
REMARK   98  A    between atoms: _219  and  _221
REMARK   99  A    between atoms: _221  and  _222
REMARK  100  A    between atoms: _221  and  _224
REMARK  101  A    between atoms: _224  and  _225
REMARK  102  A    between atoms: _228  and  _230
REMARK  103  A    between atoms: _230  and  _231
REMARK  104  A    between atoms: _230  and  _233
REMARK  105  A    between atoms: _236  and  _238
REMARK  106  A    between atoms: _238  and  _239
REMARK  107  A    between atoms: _238  and  _241
REMARK  108  A    between atoms: _241  and  _242
REMARK  109  A    between atoms: _244  and  _246
REMARK  110  A    between atoms: _246  and  _247
REMARK  111  A    between atoms: _246  and  _249
REMARK  112  A    between atoms: _249  and  _250
REMARK  113  A    between atoms: _260  and  _262
REMARK  114  A    between atoms: _262  and  _263
REMARK  115  A    between atoms: _265  and  _267
REMARK  116  A    between atoms: _267  and  _268
REMARK  117  A    between atoms: _267  and  _270
REMARK  118  A    between atoms: _270  and  _271
REMARK  119  A    between atoms: _271  and  _272
REMARK  120  A    between atoms: _272  and  _273
REMARK  121  A    between atoms: _282  and  _284
REMARK  122  A    between atoms: _284  and  _285
REMARK  123  A    between atoms: _287  and  _289
REMARK  124  A    between atoms: _289  and  _290
REMARK  125  A    between atoms: _289  and  _292
REMARK  126  A    between atoms: _292  and  _293
REMARK  127  A    between atoms: _294  and  _296
REMARK  128  A    between atoms: _296  and  _297
REMARK  129  A    between atoms: _300  and  _302
REMARK  130  A    between atoms: _302  and  _303
REMARK  131  A    between atoms: _302  and  _305
REMARK  132  A    between atoms: _305  and  _306
REMARK  133  A    between atoms: _309  and  _311
REMARK  134  A    between atoms: _311  and  _312
REMARK  135  A    between atoms: _311  and  _314
REMARK  136  A    between atoms: _314  and  _315
REMARK  137  A    between atoms: _315  and  _316
REMARK  138  A    between atoms: _316  and  _317
REMARK  139  A    between atoms: _317  and  _318
REMARK  140  A    between atoms: _323  and  _324
REMARK  141  A    between atoms: _329  and  _331
REMARK  142  A    between atoms: _331  and  _332
REMARK  143  A    between atoms: _334  and  _336
REMARK  144  A    between atoms: _336  and  _337
REMARK  145  A    between atoms: _336  and  _339
REMARK  146  A    between atoms: _342  and  _344
REMARK  147  A    between atoms: _344  and  _345
REMARK  148  A    between atoms: _344  and  _347
REMARK  149  A    between atoms: _347  and  _348
REMARK  150  A    between atoms: _353  and  _354
REMARK                            x       y       z     vdW  Elec       q    Type
REMARK                         _______ _______ _______ _____ _____    ______ ____
ROOT
ATOM      1  C   GLY A   3       5.264  -3.516  22.321  0.00  0.00    +0.243 C 
ATOM      2  O   GLY A   3       4.858  -4.610  21.961  0.00  0.00    -0.273 OA
ATOM      3  N   VAL A   4       5.085  -2.422  21.637  0.00  0.00    -0.297 N 
ATOM      4  H   VAL A   4       5.448  -1.519  22.003  0.00  0.00    +0.150 HD
ENDROOT
BRANCH   1   5
ATOM      5  CA  GLY A   3       6.010  -3.426  23.635  0.00  0.00    +0.176 C 
BRANCH   5   8
ATOM      6  C   PRO A   2       4.300  -4.175  25.152  0.00  0.00    +0.241 C 
ATOM      7  O   PRO A   2       3.939  -3.025  25.305  0.00  0.00    -0.273 OA
ATOM      8  N   GLY A   3       5.282  -4.491  24.368  0.00  0.00    -0.295 N 
ATOM      9  H   GLY A   3       5.559  -5.487  24.253  0.00  0.00    +0.150 HD
BRANCH   6  16
ATOM     10  C   LYS A   1       2.913  -4.221  27.931  0.00  0.00    +0.241 C 
ATOM     11  O   LYS A   1       4.077  -4.052  28.271  0.00  0.00    -0.273 OA
ATOM     12  N   PRO A   2       2.587  -4.872  26.833  0.00  0.00    -0.272 N 
ATOM     13  CD  PRO A   2       1.215  -5.242  26.379  0.00  0.00    +0.094 C 
ATOM     14  CG  PRO A   2       1.489  -6.500  25.560  0.00  0.00    +0.024 C 
ATOM     15  CB  PRO A   2       2.821  -6.199  24.855  0.00  0.00    +0.031 C 
ATOM     16  CA  PRO A   2       3.598  -5.353  25.859  0.00  0.00    +0.152 C 
BRANCH  10  17
ATOM     17  CA  LYS A   1       1.725  -3.695  28.781  0.00  0.00    +0.145 C 
BRANCH  17  18
ATOM     18  N   LYS A   1       1.329  -4.904  29.549  0.00  0.00    -0.238 NA
ATOM     19  H   LYS A   1       2.068  -5.447  30.040  0.00  0.00    +0.142 HD
ENDBRANCH  17  18
BRANCH  17  20
ATOM     20  CB  LYS A   1       2.173  -2.581  29.743  0.00  0.00    +0.026 C 
BRANCH  20  21
ATOM     21  CG  LYS A   1       1.015  -2.170  30.704  0.00  0.00    -0.000 C 
BRANCH  21  22
ATOM     22  CD  LYS A   1      -0.210  -1.650  29.918  0.00  0.00    -0.024 C 
BRANCH  22  23
ATOM     23  CE  LYS A   1      -1.397  -1.495  30.889  0.00  0.00    -0.086 C 
BRANCH  23  24
ATOM     24  NZ  LYS A   1      -2.618  -1.231  30.093  0.00  0.00    +0.380 N 
ATOM     25  HZ1 LYS A   1      -3.431  -1.123  30.733  0.00  0.00    -0.089 HD
ATOM     26  HZ2 LYS A   1      -2.490  -0.357  29.543  0.00  0.00    -0.089 HD
ATOM     27  HZ3 LYS A   1      -2.788  -2.027  29.446  0.00  0.00    -0.089 HD
ENDBRANCH  23  24
ENDBRANCH  22  23
ENDBRANCH  21  22
ENDBRANCH  20  21
ENDBRANCH  17  20
ENDBRANCH  10  17
ENDBRANCH   6  16
ENDBRANCH   5   8
ENDBRANCH   1   5
BRANCH   3  28
ATOM     28  CA  VAL A   4       4.364  -2.456  20.336  0.00  0.00    +0.149 C 
BRANCH  28  29
ATOM     29  C   VAL A   4       5.442  -2.073  19.303  0.00  0.00    +0.241 C 
ATOM     30  O   VAL A   4       6.217  -1.154  19.531  0.00  0.00    -0.273 OA
ATOM     31  N   TYR A   5       5.454  -2.775  18.206  0.00  0.00    -0.298 N 
ATOM     32  H   TYR A   5       4.743  -3.524  18.089  0.00  0.00    +0.150 HD
BRANCH  31  33
ATOM     33  CA  TYR A   5       6.429  -2.556  17.124  0.00  0.00    +0.141 C 
BRANCH  33  34
ATOM     34  C   TYR A   5       5.717  -2.287  15.821  0.00  0.00    +0.227 C 
ATOM     35  O   TYR A   5       4.596  -2.723  15.660  0.00  0.00    -0.286 OA
ENDBRANCH  33  34
BRANCH  33  36
ATOM     36  CB  TYR A   5       7.310  -3.836  16.943  0.00  0.00    +0.054 C 
BRANCH  36  37
ATOM     37  CG  TYR A   5       8.025  -4.181  18.247  0.00  0.00    -0.020 A 
ATOM     38  CD2 TYR A   5       7.334  -4.661  19.329  0.00  0.00    -0.001 A 
ATOM     39  CE2 TYR A   5       7.980  -4.934  20.522  0.00  0.00    +0.036 A 
ATOM     40  CZ  TYR A   5       9.343  -4.723  20.625  0.00  0.00    +0.134 A 
ATOM     41  CE1 TYR A   5      10.027  -4.251  19.527  0.00  0.00    +0.036 A 
ATOM     42  CD1 TYR A   5       9.371  -3.983  18.352  0.00  0.00    -0.001 A 
BRANCH  40  43
ATOM     43  OH  TYR A   5      10.031  -4.938  21.801  0.00  0.00    -0.506 OA
ATOM     44  HH  TYR A   5       9.406  -5.275  22.491  0.00  0.00    +0.292 HD
ENDBRANCH  40  43
ENDBRANCH  36  37
ENDBRANCH  33  36
ENDBRANCH  31  33
ENDBRANCH  28  29
BRANCH  28  45
ATOM     45  CB  VAL A   4       3.191  -1.438  20.415  0.00  0.00    +0.027 C 
ATOM     46  CG2 VAL A   4       2.405  -1.692  21.739  0.00  0.00    +0.002 C 
ATOM     47  CG1 VAL A   4       2.237  -1.638  19.215  0.00  0.00    +0.002 C 
ENDBRANCH  28  45
ENDBRANCH   3  28
TORSDOF 18
REMARK  Name = ../refined-set-2016/1c5y/1c5y_pocket.pdb
REMARK  150 active torsions:
REMARK  status: ('A' for Active; 'I' for Inactive)
REMARK    1  A    between atoms: _1  and  _3
REMARK    2  A    between atoms: _3  and  _4
REMARK    3  A    between atoms: _3  and  _6
REMARK    4  A    between atoms: _6  and  _7
REMARK    5  A    between atoms: _10  and  _12
REMARK    6  A    between atoms: _12  and  _13
REMARK    7  A    between atoms: _12  and  _15
REMARK    8  A    between atoms: _15  and  _16
REMARK    9  A    between atoms: _16  and  _34
REMARK   10  A    between atoms: _17  and  _19
REMARK   11  A    between atoms: _19  and  _20
REMARK   12  A    between atoms: _19  and  _22
REMARK   13  A    between atoms: _22  and  _23
REMARK   14  A    between atoms: _28  and  _30
REMARK   15  A    between atoms: _30  and  _31
REMARK   16  A    between atoms: _30  and  _33
REMARK   17  A    between atoms: _33  and  _34
REMARK   18  A    between atoms: _35  and  _37
REMARK   19  A    between atoms: _37  and  _38
REMARK   20  A    between atoms: _37  and  _40
REMARK   21  A    between atoms: _40  and  _41
REMARK   22  A    between atoms: _44  and  _46
REMARK   23  A    between atoms: _46  and  _47
REMARK   24  A    between atoms: _46  and  _49
REMARK   25  A    between atoms: _49  and  _50
REMARK   26  A    between atoms: _55  and  _57
REMARK   27  A    between atoms: _57  and  _58
REMARK   28  A    between atoms: _57  and  _60
REMARK   29  A    between atoms: _60  and  _61
REMARK   30  A    between atoms: _64  and  _66
REMARK   31  A    between atoms: _66  and  _67
REMARK   32  A    between atoms: _66  and  _69
REMARK   33  A    between atoms: _69  and  _70
REMARK   34  A    between atoms: _73  and  _75
REMARK   35  A    between atoms: _75  and  _76
REMARK   36  A    between atoms: _75  and  _78
REMARK   37  A    between atoms: _78  and  _79
REMARK   38  A    between atoms: _79  and  _80
REMARK   39  A    between atoms: _80  and  _81
REMARK   40  A    between atoms: _81  and  _82
REMARK   41  A    between atoms: _86  and  _88
REMARK   42  A    between atoms: _88  and  _89
REMARK   43  A    between atoms: _88  and  _91
REMARK   44  A    between atoms: _91  and  _92
REMARK   45  A    between atoms: _94  and  _96
REMARK   46  A    between atoms: _96  and  _97
REMARK   47  A    between atoms: _96  and  _99
REMARK   48  A    between atoms: _99  and  _100
REMARK   49  A    between atoms: _105  and  _106
REMARK   50  A    between atoms: _108  and  _110
REMARK   51  A    between atoms: _110  and  _111
REMARK   52  A    between atoms: _110  and  _113
REMARK   53  A    between atoms: _116  and  _118
REMARK   54  A    between atoms: _118  and  _119
REMARK   55  A    between atoms: _118  and  _121
REMARK   56  A    between atoms: _121  and  _122
REMARK   57  A    between atoms: _127  and  _128
REMARK   58  A    between atoms: _130  and  _132
REMARK   59  A    between atoms: _132  and  _133
REMARK   60  A    between atoms: _136  and  _138
REMARK   61  A    between atoms: _138  and  _139
REMARK   62  A    between atoms: _142  and  _144
REMARK   63  A    between atoms: _144  and  _145
REMARK   64  A    between atoms: _144  and  _147
REMARK   65  A    between atoms: _147  and  _148
REMARK   66  A    between atoms: _151  and  _153
REMARK   67  A    between atoms: _153  and  _154
REMARK   68  A    between atoms: _153  and  _156
REMARK   69  A    between atoms: _156  and  _157
REMARK   70  A    between atoms: _160  and  _162
REMARK   71  A    between atoms: _162  and  _163
REMARK   72  A    between atoms: _162  and  _165
REMARK   73  A    between atoms: _165  and  _166
REMARK   74  A    between atoms: _168  and  _170
REMARK   75  A    between atoms: _170  and  _171
REMARK   76  A    between atoms: _170  and  _173
REMARK   77  A    between atoms: _173  and  _174
REMARK   78  A    between atoms: _174  and  _293
REMARK   79  A    between atoms: _175  and  _177
REMARK   80  A    between atoms: _177  and  _178
REMARK   81  A    between atoms: _177  and  _180
REMARK   82  A    between atoms: _180  and  _181
REMARK   83  A    between atoms: _181  and  _182
REMARK   84  A    between atoms: _187  and  _189
REMARK   85  A    between atoms: _189  and  _190
REMARK   86  A    between atoms: _192  and  _194
REMARK   87  A    between atoms: _194  and  _195
REMARK   88  A    between atoms: _194  and  _197
REMARK   89  A    between atoms: _197  and  _198
REMARK   90  A    between atoms: _201  and  _203
REMARK   91  A    between atoms: _203  and  _204
REMARK   92  A    between atoms: _203  and  _206
REMARK   93  A    between atoms: _206  and  _207
REMARK   94  A    between atoms: _209  and  _211
REMARK   95  A    between atoms: _211  and  _212
REMARK   96  A    between atoms: _214  and  _216
REMARK   97  A    between atoms: _216  and  _217
REMARK   98  A    between atoms: _219  and  _221
REMARK   99  A    between atoms: _221  and  _222
REMARK  100  A    between atoms: _221  and  _224
REMARK  101  A    between atoms: _224  and  _225
REMARK  102  A    between atoms: _228  and  _230
REMARK  103  A    between atoms: _230  and  _231
REMARK  104  A    between atoms: _230  and  _233
REMARK  105  A    between atoms: _236  and  _238
REMARK  106  A    between atoms: _238  and  _239
REMARK  107  A    between atoms: _238  and  _241
REMARK  108  A    between atoms: _241  and  _242
REMARK  109  A    between atoms: _244  and  _246
REMARK  110  A    between atoms: _246  and  _247
REMARK  111  A    between atoms: _246  and  _249
REMARK  112  A    between atoms: _249  and  _250
REMARK  113  A    between atoms: _260  and  _262
REMARK  114  A    between atoms: _262  and  _263
REMARK  115  A    between atoms: _265  and  _267
REMARK  116  A    between atoms: _267  and  _268
REMARK  117  A    between atoms: _267  and  _270
REMARK  118  A    between atoms: _270  and  _271
REMARK  119  A    between atoms: _271  and  _272
REMARK  120  A    between atoms: _272  and  _273
REMARK  121  A    between atoms: _282  and  _284
REMARK  122  A    between atoms: _284  and  _285
REMARK  123  A    between atoms: _287  and  _289
REMARK  124  A    between atoms: _289  and  _290
REMARK  125  A    between atoms: _289  and  _292
REMARK  126  A    between atoms: _292  and  _293
REMARK  127  A    between atoms: _294  and  _296
REMARK  128  A    between atoms: _296  and  _297
REMARK  129  A    between atoms: _300  and  _302
REMARK  130  A    between atoms: _302  and  _303
REMARK  131  A    between atoms: _302  and  _305
REMARK  132  A    between atoms: _305  and  _306
REMARK  133  A    between atoms: _309  and  _311
REMARK  134  A    between atoms: _311  and  _312
REMARK  135  A    between atoms: _311  and  _314
REMARK  136  A    between atoms: _314  and  _315
REMARK  137  A    between atoms: _315  and  _316
REMARK  138  A    between atoms: _316  and  _317
REMARK  139  A    between atoms: _317  and  _318
REMARK  140  A    between atoms: _323  and  _324
REMARK  141  A    between atoms: _329  and  _331
REMARK  142  A    between atoms: _331  and  _332
REMARK  143  A    between atoms: _334  and  _336
REMARK  144  A    between atoms: _336  and  _337
REMARK  145  A    between atoms: _336  and  _339
REMARK  146  A    between atoms: _342  and  _344
REMARK  147  A    between atoms: _344  and  _345
REMARK  148  A    between atoms: _344  and  _347
REMARK  149  A    between atoms: _347  and  _348
REMARK  150  A    between atoms: _353  and  _354
REMARK                            x       y       z     vdW  Elec       q    Type
REMARK                         _______ _______ _______ _____ _____    ______ ____
ROOT
ATOM      1  O   HOH     1       8.601  -6.150  23.948  0.00  0.00    +0.000 OA
ENDROOT
TORSDOF 0
REMARK  Name = ../refined-set-2016/1c5y/1c5y_pocket.pdb
REMARK  150 active torsions:
REMARK  status: ('A' for Active; 'I' for Inactive)
REMARK    1  A    between atoms: _1  and  _3
REMARK    2  A    between atoms: _3  and  _4
REMARK    3  A    between atoms: _3  and  _6
REMARK    4  A    between atoms: _6  and  _7
REMARK    5  A    between atoms: _10  and  _12
REMARK    6  A    between atoms: _12  and  _13
REMARK    7  A    between atoms: _12  and  _15
REMARK    8  A    between atoms: _15  and  _16
REMARK    9  A    between atoms: _16  and  _34
REMARK   10  A    between atoms: _17  and  _19
REMARK   11  A    between atoms: _19  and  _20
REMARK   12  A    between atoms: _19  and  _22
REMARK   13  A    between atoms: _22  and  _23
REMARK   14  A    between atoms: _28  and  _30
REMARK   15  A    between atoms: _30  and  _31
REMARK   16  A    between atoms: _30  and  _33
REMARK   17  A    between atoms: _33  and  _34
REMARK   18  A    between atoms: _35  and  _37
REMARK   19  A    between atoms: _37  and  _38
REMARK   20  A    between atoms: _37  and  _40
REMARK   21  A    between atoms: _40  and  _41
REMARK   22  A    between atoms: _44  and  _46
REMARK   23  A    between atoms: _46  and  _47
REMARK   24  A    between atoms: _46  and  _49
REMARK   25  A    between atoms: _49  and  _50
REMARK   26  A    between atoms: _55  and  _57
REMARK   27  A    between atoms: _57  and  _58
REMARK   28  A    between atoms: _57  and  _60
REMARK   29  A    between atoms: _60  and  _61
REMARK   30  A    between atoms: _64  and  _66
REMARK   31  A    between atoms: _66  and  _67
REMARK   32  A    between atoms: _66  and  _69
REMARK   33  A    between atoms: _69  and  _70
REMARK   34  A    between atoms: _73  and  _75
REMARK   35  A    between atoms: _75  and  _76
REMARK   36  A    between atoms: _75  and  _78
REMARK   37  A    between atoms: _78  and  _79
REMARK   38  A    between atoms: _79  and  _80
REMARK   39  A    between atoms: _80  and  _81
REMARK   40  A    between atoms: _81  and  _82
REMARK   41  A    between atoms: _86  and  _88
REMARK   42  A    between atoms: _88  and  _89
REMARK   43  A    between atoms: _88  and  _91
REMARK   44  A    between atoms: _91  and  _92
REMARK   45  A    between atoms: _94  and  _96
REMARK   46  A    between atoms: _96  and  _97
REMARK   47  A    between atoms: _96  and  _99
REMARK   48  A    between atoms: _99  and  _100
REMARK   49  A    between atoms: _105  and  _106
REMARK   50  A    between atoms: _108  and  _110
REMARK   51  A    between atoms: _110  and  _111
REMARK   52  A    between atoms: _110  and  _113
REMARK   53  A    between atoms: _116  and  _118
REMARK   54  A    between atoms: _118  and  _119
REMARK   55  A    between atoms: _118  and  _121
REMARK   56  A    between atoms: _121  and  _122
REMARK   57  A    between atoms: _127  and  _128
REMARK   58  A    between atoms: _130  and  _132
REMARK   59  A    between atoms: _132  and  _133
REMARK   60  A    between atoms: _136  and  _138
REMARK   61  A    between atoms: _138  and  _139
REMARK   62  A    between atoms: _142  and  _144
REMARK   63  A    between atoms: _144  and  _145
REMARK   64  A    between atoms: _144  and  _147
REMARK   65  A    between atoms: _147  and  _148
REMARK   66  A    between atoms: _151  and  _153
REMARK   67  A    between atoms: _153  and  _154
REMARK   68  A    between atoms: _153  and  _156
REMARK   69  A    between atoms: _156  and  _157
REMARK   70  A    between atoms: _160  and  _162
REMARK   71  A    between atoms: _162  and  _163
REMARK   72  A    between atoms: _162  and  _165
REMARK   73  A    between atoms: _165  and  _166
REMARK   74  A    between atoms: _168  and  _170
REMARK   75  A    between atoms: _170  and  _171
REMARK   76  A    between atoms: _170  and  _173
REMARK   77  A    between atoms: _173  and  _174
REMARK   78  A    between atoms: _174  and  _293
REMARK   79  A    between atoms: _175  and  _177
REMARK   80  A    between atoms: _177  and  _178
REMARK   81  A    between atoms: _177  and  _180
REMARK   82  A    between atoms: _180  and  _181
REMARK   83  A    between atoms: _181  and  _182
REMARK   84  A    between atoms: _187  and  _189
REMARK   85  A    between atoms: _189  and  _190
REMARK   86  A    between atoms: _192  and  _194
REMARK   87  A    between atoms: _194  and  _195
REMARK   88  A    between atoms: _194  and  _197
REMARK   89  A    between atoms: _197  and  _198
REMARK   90  A    between atoms: _201  and  _203
REMARK   91  A    between atoms: _203  and  _204
REMARK   92  A    between atoms: _203  and  _206
REMARK   93  A    between atoms: _206  and  _207
REMARK   94  A    between atoms: _209  and  _211
REMARK   95  A    between atoms: _211  and  _212
REMARK   96  A    between atoms: _214  and  _216
REMARK   97  A    between atoms: _216  and  _217
REMARK   98  A    between atoms: _219  and  _221
REMARK   99  A    between atoms: _221  and  _222
REMARK  100  A    between atoms: _221  and  _224
REMARK  101  A    between atoms: _224  and  _225
REMARK  102  A    between atoms: _228  and  _230
REMARK  103  A    between atoms: _230  and  _231
REMARK  104  A    between atoms: _230  and  _233
REMARK  105  A    between atoms: _236  and  _238
REMARK  106  A    between atoms: _238  and  _239
REMARK  107  A    between atoms: _238  and  _241
REMARK  108  A    between atoms: _241  and  _242
REMARK  109  A    between atoms: _244  and  _246
REMARK  110  A    between atoms: _246  and  _247
REMARK  111  A    between atoms: _246  and  _249
REMARK  112  A    between atoms: _249  and  _250
REMARK  113  A    between atoms: _260  and  _262
REMARK  114  A    between atoms: _262  and  _263
REMARK  115  A    between atoms: _265  and  _267
REMARK  116  A    between atoms: _267  and  _268
REMARK  117  A    between atoms: _267  and  _270
REMARK  118  A    between atoms: _270  and  _271
REMARK  119  A    between atoms: _271  and  _272
REMARK  120  A    between atoms: _272  and  _273
REMARK  121  A    between atoms: _282  and  _284
REMARK  122  A    between atoms: _284  and  _285
REMARK  123  A    between atoms: _287  and  _289
REMARK  124  A    between atoms: _289  and  _290
REMARK  125  A    between atoms: _289  and  _292
REMARK  126  A    between atoms: _292  and  _293
REMARK  127  A    between atoms: _294  and  _296
REMARK  128  A    between atoms: _296  and  _297
REMARK  129  A    between atoms: _300  and  _302
REMARK  130  A    between atoms: _302  and  _303
REMARK  131  A    between atoms: _302  and  _305
REMARK  132  A    between atoms: _305  and  _306
REMARK  133  A    between atoms: _309  and  _311
REMARK  134  A    between atoms: _311  and  _312
REMARK  135  A    between atoms: _311  and  _314
REMARK  136  A    between atoms: _314  and  _315
REMARK  137  A    between atoms: _315  and  _316
REMARK  138  A    between atoms: _316  and  _317
REMARK  139  A    between atoms: _317  and  _318
REMARK  140  A    between atoms: _323  and  _324
REMARK  141  A    between atoms: _329  and  _331
REMARK  142  A    between atoms: _331  and  _332
REMARK  143  A    between atoms: _334  and  _336
REMARK  144  A    between atoms: _336  and  _337
REMARK  145  A    between atoms: _336  and  _339
REMARK  146  A    between atoms: _342  and  _344
REMARK  147  A    between atoms: _344  and  _345
REMARK  148  A    between atoms: _344  and  _347
REMARK  149  A    between atoms: _347  and  _348
REMARK  150  A    between atoms: _353  and  _354
REMARK                            x       y       z     vdW  Elec       q    Type
REMARK                         _______ _______ _______ _____ _____    ______ ____
ROOT
ATOM      1  O   HOH     1       4.755   5.368  29.732  0.00  0.00    +0.000 OA
ENDROOT
TORSDOF 0
REMARK  Name = ../refined-set-2016/1c5y/1c5y_pocket.pdb
REMARK  150 active torsions:
REMARK  status: ('A' for Active; 'I' for Inactive)
REMARK    1  A    between atoms: _1  and  _3
REMARK    2  A    between atoms: _3  and  _4
REMARK    3  A    between atoms: _3  and  _6
REMARK    4  A    between atoms: _6  and  _7
REMARK    5  A    between atoms: _10  and  _12
REMARK    6  A    between atoms: _12  and  _13
REMARK    7  A    between atoms: _12  and  _15
REMARK    8  A    between atoms: _15  and  _16
REMARK    9  A    between atoms: _16  and  _34
REMARK   10  A    between atoms: _17  and  _19
REMARK   11  A    between atoms: _19  and  _20
REMARK   12  A    between atoms: _19  and  _22
REMARK   13  A    between atoms: _22  and  _23
REMARK   14  A    between atoms: _28  and  _30
REMARK   15  A    between atoms: _30  and  _31
REMARK   16  A    between atoms: _30  and  _33
REMARK   17  A    between atoms: _33  and  _34
REMARK   18  A    between atoms: _35  and  _37
REMARK   19  A    between atoms: _37  and  _38
REMARK   20  A    between atoms: _37  and  _40
REMARK   21  A    between atoms: _40  and  _41
REMARK   22  A    between atoms: _44  and  _46
REMARK   23  A    between atoms: _46  and  _47
REMARK   24  A    between atoms: _46  and  _49
REMARK   25  A    between atoms: _49  and  _50
REMARK   26  A    between atoms: _55  and  _57
REMARK   27  A    between atoms: _57  and  _58
REMARK   28  A    between atoms: _57  and  _60
REMARK   29  A    between atoms: _60  and  _61
REMARK   30  A    between atoms: _64  and  _66
REMARK   31  A    between atoms: _66  and  _67
REMARK   32  A    between atoms: _66  and  _69
REMARK   33  A    between atoms: _69  and  _70
REMARK   34  A    between atoms: _73  and  _75
REMARK   35  A    between atoms: _75  and  _76
REMARK   36  A    between atoms: _75  and  _78
REMARK   37  A    between atoms: _78  and  _79
REMARK   38  A    between atoms: _79  and  _80
REMARK   39  A    between atoms: _80  and  _81
REMARK   40  A    between atoms: _81  and  _82
REMARK   41  A    between atoms: _86  and  _88
REMARK   42  A    between atoms: _88  and  _89
REMARK   43  A    between atoms: _88  and  _91
REMARK   44  A    between atoms: _91  and  _92
REMARK   45  A    between atoms: _94  and  _96
REMARK   46  A    between atoms: _96  and  _97
REMARK   47  A    between atoms: _96  and  _99
REMARK   48  A    between atoms: _99  and  _100
REMARK   49  A    between atoms: _105  and  _106
REMARK   50  A    between atoms: _108  and  _110
REMARK   51  A    between atoms: _110  and  _111
REMARK   52  A    between atoms: _110  and  _113
REMARK   53  A    between atoms: _116  and  _118
REMARK   54  A    between atoms: _118  and  _119
REMARK   55  A    between atoms: _118  and  _121
REMARK   56  A    between atoms: _121  and  _122
REMARK   57  A    between atoms: _127  and  _128
REMARK   58  A    between atoms: _130  and  _132
REMARK   59  A    between atoms: _132  and  _133
REMARK   60  A    between atoms: _136  and  _138
REMARK   61  A    between atoms: _138  and  _139
REMARK   62  A    between atoms: _142  and  _144
REMARK   63  A    between atoms: _144  and  _145
REMARK   64  A    between atoms: _144  and  _147
REMARK   65  A    between atoms: _147  and  _148
REMARK   66  A    between atoms: _151  and  _153
REMARK   67  A    between atoms: _153  and  _154
REMARK   68  A    between atoms: _153  and  _156
REMARK   69  A    between atoms: _156  and  _157
REMARK   70  A    between atoms: _160  and  _162
REMARK   71  A    between atoms: _162  and  _163
REMARK   72  A    between atoms: _162  and  _165
REMARK   73  A    between atoms: _165  and  _166
REMARK   74  A    between atoms: _168  and  _170
REMARK   75  A    between atoms: _170  and  _171
REMARK   76  A    between atoms: _170  and  _173
REMARK   77  A    between atoms: _173  and  _174
REMARK   78  A    between atoms: _174  and  _293
REMARK   79  A    between atoms: _175  and  _177
REMARK   80  A    between atoms: _177  and  _178
REMARK   81  A    between atoms: _177  and  _180
REMARK   82  A    between atoms: _180  and  _181
REMARK   83  A    between atoms: _181  and  _182
REMARK   84  A    between atoms: _187  and  _189
REMARK   85  A    between atoms: _189  and  _190
REMARK   86  A    between atoms: _192  and  _194
REMARK   87  A    between atoms: _194  and  _195
REMARK   88  A    between atoms: _194  and  _197
REMARK   89  A    between atoms: _197  and  _198
REMARK   90  A    between atoms: _201  and  _203
REMARK   91  A    between atoms: _203  and  _204
REMARK   92  A    between atoms: _203  and  _206
REMARK   93  A    between atoms: _206  and  _207
REMARK   94  A    between atoms: _209  and  _211
REMARK   95  A    between atoms: _211  and  _212
REMARK   96  A    between atoms: _214  and  _216
REMARK   97  A    between atoms: _216  and  _217
REMARK   98  A    between atoms: _219  and  _221
REMARK   99  A    between atoms: _221  and  _222
REMARK  100  A    between atoms: _221  and  _224
REMARK  101  A    between atoms: _224  and  _225
REMARK  102  A    between atoms: _228  and  _230
REMARK  103  A    between atoms: _230  and  _231
REMARK  104  A    between atoms: _230  and  _233
REMARK  105  A    between atoms: _236  and  _238
REMARK  106  A    between atoms: _238  and  _239
REMARK  107  A    between atoms: _238  and  _241
REMARK  108  A    between atoms: _241  and  _242
REMARK  109  A    between atoms: _244  and  _246
REMARK  110  A    between atoms: _246  and  _247
REMARK  111  A    between atoms: _246  and  _249
REMARK  112  A    between atoms: _249  and  _250
REMARK  113  A    between atoms: _260  and  _262
REMARK  114  A    between atoms: _262  and  _263
REMARK  115  A    between atoms: _265  and  _267
REMARK  116  A    between atoms: _267  and  _268
REMARK  117  A    between atoms: _267  and  _270
REMARK  118  A    between atoms: _270  and  _271
REMARK  119  A    between atoms: _271  and  _272
REMARK  120  A    between atoms: _272  and  _273
REMARK  121  A    between atoms: _282  and  _284
REMARK  122  A    between atoms: _284  and  _285
REMARK  123  A    between atoms: _287  and  _289
REMARK  124  A    between atoms: _289  and  _290
REMARK  125  A    between atoms: _289  and  _292
REMARK  126  A    between atoms: _292  and  _293
REMARK  127  A    between atoms: _294  and  _296
REMARK  128  A    between atoms: _296  and  _297
REMARK  129  A    between atoms: _300  and  _302
REMARK  130  A    between atoms: _302  and  _303
REMARK  131  A    between atoms: _302  and  _305
REMARK  132  A    between atoms: _305  and  _306
REMARK  133  A    between atoms: _309  and  _311
REMARK  134  A    between atoms: _311  and  _312
REMARK  135  A    between atoms: _311  and  _314
REMARK  136  A    between atoms: _314  and  _315
REMARK  137  A    between atoms: _315  and  _316
REMARK  138  A    between atoms: _316  and  _317
REMARK  139  A    between atoms: _317  and  _318
REMARK  140  A    between atoms: _323  and  _324
REMARK  141  A    between atoms: _329  and  _331
REMARK  142  A    between atoms: _331  and  _332
REMARK  143  A    between atoms: _334  and  _336
REMARK  144  A    between atoms: _336  and  _337
REMARK  145  A    between atoms: _336  and  _339
REMARK  146  A    between atoms: _342  and  _344
REMARK  147  A    between atoms: _344  and  _345
REMARK  148  A    between atoms: _344  and  _347
REMARK  149  A    between atoms: _347  and  _348
REMARK  150  A    between atoms: _353  and  _354
REMARK                            x       y       z     vdW  Elec       q    Type
REMARK                         _______ _______ _______ _____ _____    ______ ____
ROOT
ATOM      1  O   HOH     1       5.730  -2.211  29.373  0.00  0.00    +0.000 OA
ENDROOT
TORSDOF 0
REMARK  Name = ../refined-set-2016/1c5y/1c5y_pocket.pdb
REMARK  150 active torsions:
REMARK  status: ('A' for Active; 'I' for Inactive)
REMARK    1  A    between atoms: _1  and  _3
REMARK    2  A    between atoms: _3  and  _4
REMARK    3  A    between atoms: _3  and  _6
REMARK    4  A    between atoms: _6  and  _7
REMARK    5  A    between atoms: _10  and  _12
REMARK    6  A    between atoms: _12  and  _13
REMARK    7  A    between atoms: _12  and  _15
REMARK    8  A    between atoms: _15  and  _16
REMARK    9  A    between atoms: _16  and  _34
REMARK   10  A    between atoms: _17  and  _19
REMARK   11  A    between atoms: _19  and  _20
REMARK   12  A    between atoms: _19  and  _22
REMARK   13  A    between atoms: _22  and  _23
REMARK   14  A    between atoms: _28  and  _30
REMARK   15  A    between atoms: _30  and  _31
REMARK   16  A    between atoms: _30  and  _33
REMARK   17  A    between atoms: _33  and  _34
REMARK   18  A    between atoms: _35  and  _37
REMARK   19  A    between atoms: _37  and  _38
REMARK   20  A    between atoms: _37  and  _40
REMARK   21  A    between atoms: _40  and  _41
REMARK   22  A    between atoms: _44  and  _46
REMARK   23  A    between atoms: _46  and  _47
REMARK   24  A    between atoms: _46  and  _49
REMARK   25  A    between atoms: _49  and  _50
REMARK   26  A    between atoms: _55  and  _57
REMARK   27  A    between atoms: _57  and  _58
REMARK   28  A    between atoms: _57  and  _60
REMARK   29  A    between atoms: _60  and  _61
REMARK   30  A    between atoms: _64  and  _66
REMARK   31  A    between atoms: _66  and  _67
REMARK   32  A    between atoms: _66  and  _69
REMARK   33  A    between atoms: _69  and  _70
REMARK   34  A    between atoms: _73  and  _75
REMARK   35  A    between atoms: _75  and  _76
REMARK   36  A    between atoms: _75  and  _78
REMARK   37  A    between atoms: _78  and  _79
REMARK   38  A    between atoms: _79  and  _80
REMARK   39  A    between atoms: _80  and  _81
REMARK   40  A    between atoms: _81  and  _82
REMARK   41  A    between atoms: _86  and  _88
REMARK   42  A    between atoms: _88  and  _89
REMARK   43  A    between atoms: _88  and  _91
REMARK   44  A    between atoms: _91  and  _92
REMARK   45  A    between atoms: _94  and  _96
REMARK   46  A    between atoms: _96  and  _97
REMARK   47  A    between atoms: _96  and  _99
REMARK   48  A    between atoms: _99  and  _100
REMARK   49  A    between atoms: _105  and  _106
REMARK   50  A    between atoms: _108  and  _110
REMARK   51  A    between atoms: _110  and  _111
REMARK   52  A    between atoms: _110  and  _113
REMARK   53  A    between atoms: _116  and  _118
REMARK   54  A    between atoms: _118  and  _119
REMARK   55  A    between atoms: _118  and  _121
REMARK   56  A    between atoms: _121  and  _122
REMARK   57  A    between atoms: _127  and  _128
REMARK   58  A    between atoms: _130  and  _132
REMARK   59  A    between atoms: _132  and  _133
REMARK   60  A    between atoms: _136  and  _138
REMARK   61  A    between atoms: _138  and  _139
REMARK   62  A    between atoms: _142  and  _144
REMARK   63  A    between atoms: _144  and  _145
REMARK   64  A    between atoms: _144  and  _147
REMARK   65  A    between atoms: _147  and  _148
REMARK   66  A    between atoms: _151  and  _153
REMARK   67  A    between atoms: _153  and  _154
REMARK   68  A    between atoms: _153  and  _156
REMARK   69  A    between atoms: _156  and  _157
REMARK   70  A    between atoms: _160  and  _162
REMARK   71  A    between atoms: _162  and  _163
REMARK   72  A    between atoms: _162  and  _165
REMARK   73  A    between atoms: _165  and  _166
REMARK   74  A    between atoms: _168  and  _170
REMARK   75  A    between atoms: _170  and  _171
REMARK   76  A    between atoms: _170  and  _173
REMARK   77  A    between atoms: _173  and  _174
REMARK   78  A    between atoms: _174  and  _293
REMARK   79  A    between atoms: _175  and  _177
REMARK   80  A    between atoms: _177  and  _178
REMARK   81  A    between atoms: _177  and  _180
REMARK   82  A    between atoms: _180  and  _181
REMARK   83  A    between atoms: _181  and  _182
REMARK   84  A    between atoms: _187  and  _189
REMARK   85  A    between atoms: _189  and  _190
REMARK   86  A    between atoms: _192  and  _194
REMARK   87  A    between atoms: _194  and  _195
REMARK   88  A    between atoms: _194  and  _197
REMARK   89  A    between atoms: _197  and  _198
REMARK   90  A    between atoms: _201  and  _203
REMARK   91  A    between atoms: _203  and  _204
REMARK   92  A    between atoms: _203  and  _206
REMARK   93  A    between atoms: _206  and  _207
REMARK   94  A    between atoms: _209  and  _211
REMARK   95  A    between atoms: _211  and  _212
REMARK   96  A    between atoms: _214  and  _216
REMARK   97  A    between atoms: _216  and  _217
REMARK   98  A    between atoms: _219  and  _221
REMARK   99  A    between atoms: _221  and  _222
REMARK  100  A    between atoms: _221  and  _224
REMARK  101  A    between atoms: _224  and  _225
REMARK  102  A    between atoms: _228  and  _230
REMARK  103  A    between atoms: _230  and  _231
REMARK  104  A    between atoms: _230  and  _233
REMARK  105  A    between atoms: _236  and  _238
REMARK  106  A    between atoms: _238  and  _239
REMARK  107  A    between atoms: _238  and  _241
REMARK  108  A    between atoms: _241  and  _242
REMARK  109  A    between atoms: _244  and  _246
REMARK  110  A    between atoms: _246  and  _247
REMARK  111  A    between atoms: _246  and  _249
REMARK  112  A    between atoms: _249  and  _250
REMARK  113  A    between atoms: _260  and  _262
REMARK  114  A    between atoms: _262  and  _263
REMARK  115  A    between atoms: _265  and  _267
REMARK  116  A    between atoms: _267  and  _268
REMARK  117  A    between atoms: _267  and  _270
REMARK  118  A    between atoms: _270  and  _271
REMARK  119  A    between atoms: _271  and  _272
REMARK  120  A    between atoms: _272  and  _273
REMARK  121  A    between atoms: _282  and  _284
REMARK  122  A    between atoms: _284  and  _285
REMARK  123  A    between atoms: _287  and  _289
REMARK  124  A    between atoms: _289  and  _290
REMARK  125  A    between atoms: _289  and  _292
REMARK  126  A    between atoms: _292  and  _293
REMARK  127  A    between atoms: _294  and  _296
REMARK  128  A    between atoms: _296  and  _297
REMARK  129  A    between atoms: _300  and  _302
REMARK  130  A    between atoms: _302  and  _303
REMARK  131  A    between atoms: _302  and  _305
REMARK  132  A    between atoms: _305  and  _306
REMARK  133  A    between atoms: _309  and  _311
REMARK  134  A    between atoms: _311  and  _312
REMARK  135  A    between atoms: _311  and  _314
REMARK  136  A    between atoms: _314  and  _315
REMARK  137  A    between atoms: _315  and  _316
REMARK  138  A    between atoms: _316  and  _317
REMARK  139  A    between atoms: _317  and  _318
REMARK  140  A    between atoms: _323  and  _324
REMARK  141  A    between atoms: _329  and  _331
REMARK  142  A    between atoms: _331  and  _332
REMARK  143  A    between atoms: _334  and  _336
REMARK  144  A    between atoms: _336  and  _337
REMARK  145  A    between atoms: _336  and  _339
REMARK  146  A    between atoms: _342  and  _344
REMARK  147  A    between atoms: _344  and  _345
REMARK  148  A    between atoms: _344  and  _347
REMARK  149  A    between atoms: _347  and  _348
REMARK  150  A    between atoms: _353  and  _354
REMARK                            x       y       z     vdW  Elec       q    Type
REMARK                         _______ _______ _______ _____ _____    ______ ____
ROOT
ATOM      1  O   HOH     1       7.765  -8.114  28.593  0.00  0.00    +0.000 OA
ENDROOT
TORSDOF 0
REMARK  Name = ../refined-set-2016/1c5y/1c5y_pocket.pdb
REMARK  150 active torsions:
REMARK  status: ('A' for Active; 'I' for Inactive)
REMARK    1  A    between atoms: _1  and  _3
REMARK    2  A    between atoms: _3  and  _4
REMARK    3  A    between atoms: _3  and  _6
REMARK    4  A    between atoms: _6  and  _7
REMARK    5  A    between atoms: _10  and  _12
REMARK    6  A    between atoms: _12  and  _13
REMARK    7  A    between atoms: _12  and  _15
REMARK    8  A    between atoms: _15  and  _16
REMARK    9  A    between atoms: _16  and  _34
REMARK   10  A    between atoms: _17  and  _19
REMARK   11  A    between atoms: _19  and  _20
REMARK   12  A    between atoms: _19  and  _22
REMARK   13  A    between atoms: _22  and  _23
REMARK   14  A    between atoms: _28  and  _30
REMARK   15  A    between atoms: _30  and  _31
REMARK   16  A    between atoms: _30  and  _33
REMARK   17  A    between atoms: _33  and  _34
REMARK   18  A    between atoms: _35  and  _37
REMARK   19  A    between atoms: _37  and  _38
REMARK   20  A    between atoms: _37  and  _40
REMARK   21  A    between atoms: _40  and  _41
REMARK   22  A    between atoms: _44  and  _46
REMARK   23  A    between atoms: _46  and  _47
REMARK   24  A    between atoms: _46  and  _49
REMARK   25  A    between atoms: _49  and  _50
REMARK   26  A    between atoms: _55  and  _57
REMARK   27  A    between atoms: _57  and  _58
REMARK   28  A    between atoms: _57  and  _60
REMARK   29  A    between atoms: _60  and  _61
REMARK   30  A    between atoms: _64  and  _66
REMARK   31  A    between atoms: _66  and  _67
REMARK   32  A    between atoms: _66  and  _69
REMARK   33  A    between atoms: _69  and  _70
REMARK   34  A    between atoms: _73  and  _75
REMARK   35  A    between atoms: _75  and  _76
REMARK   36  A    between atoms: _75  and  _78
REMARK   37  A    between atoms: _78  and  _79
REMARK   38  A    between atoms: _79  and  _80
REMARK   39  A    between atoms: _80  and  _81
REMARK   40  A    between atoms: _81  and  _82
REMARK   41  A    between atoms: _86  and  _88
REMARK   42  A    between atoms: _88  and  _89
REMARK   43  A    between atoms: _88  and  _91
REMARK   44  A    between atoms: _91  and  _92
REMARK   45  A    between atoms: _94  and  _96
REMARK   46  A    between atoms: _96  and  _97
REMARK   47  A    between atoms: _96  and  _99
REMARK   48  A    between atoms: _99  and  _100
REMARK   49  A    between atoms: _105  and  _106
REMARK   50  A    between atoms: _108  and  _110
REMARK   51  A    between atoms: _110  and  _111
REMARK   52  A    between atoms: _110  and  _113
REMARK   53  A    between atoms: _116  and  _118
REMARK   54  A    between atoms: _118  and  _119
REMARK   55  A    between atoms: _118  and  _121
REMARK   56  A    between atoms: _121  and  _122
REMARK   57  A    between atoms: _127  and  _128
REMARK   58  A    between atoms: _130  and  _132
REMARK   59  A    between atoms: _132  and  _133
REMARK   60  A    between atoms: _136  and  _138
REMARK   61  A    between atoms: _138  and  _139
REMARK   62  A    between atoms: _142  and  _144
REMARK   63  A    between atoms: _144  and  _145
REMARK   64  A    between atoms: _144  and  _147
REMARK   65  A    between atoms: _147  and  _148
REMARK   66  A    between atoms: _151  and  _153
REMARK   67  A    between atoms: _153  and  _154
REMARK   68  A    between atoms: _153  and  _156
REMARK   69  A    between atoms: _156  and  _157
REMARK   70  A    between atoms: _160  and  _162
REMARK   71  A    between atoms: _162  and  _163
REMARK   72  A    between atoms: _162  and  _165
REMARK   73  A    between atoms: _165  and  _166
REMARK   74  A    between atoms: _168  and  _170
REMARK   75  A    between atoms: _170  and  _171
REMARK   76  A    between atoms: _170  and  _173
REMARK   77  A    between atoms: _173  and  _174
REMARK   78  A    between atoms: _174  and  _293
REMARK   79  A    between atoms: _175  and  _177
REMARK   80  A    between atoms: _177  and  _178
REMARK   81  A    between atoms: _177  and  _180
REMARK   82  A    between atoms: _180  and  _181
REMARK   83  A    between atoms: _181  and  _182
REMARK   84  A    between atoms: _187  and  _189
REMARK   85  A    between atoms: _189  and  _190
REMARK   86  A    between atoms: _192  and  _194
REMARK   87  A    between atoms: _194  and  _195
REMARK   88  A    between atoms: _194  and  _197
REMARK   89  A    between atoms: _197  and  _198
REMARK   90  A    between atoms: _201  and  _203
REMARK   91  A    between atoms: _203  and  _204
REMARK   92  A    between atoms: _203  and  _206
REMARK   93  A    between atoms: _206  and  _207
REMARK   94  A    between atoms: _209  and  _211
REMARK   95  A    between atoms: _211  and  _212
REMARK   96  A    between atoms: _214  and  _216
REMARK   97  A    between atoms: _216  and  _217
REMARK   98  A    between atoms: _219  and  _221
REMARK   99  A    between atoms: _221  and  _222
REMARK  100  A    between atoms: _221  and  _224
REMARK  101  A    between atoms: _224  and  _225
REMARK  102  A    between atoms: _228  and  _230
REMARK  103  A    between atoms: _230  and  _231
REMARK  104  A    between atoms: _230  and  _233
REMARK  105  A    between atoms: _236  and  _238
REMARK  106  A    between atoms: _238  and  _239
REMARK  107  A    between atoms: _238  and  _241
REMARK  108  A    between atoms: _241  and  _242
REMARK  109  A    between atoms: _244  and  _246
REMARK  110  A    between atoms: _246  and  _247
REMARK  111  A    between atoms: _246  and  _249
REMARK  112  A    between atoms: _249  and  _250
REMARK  113  A    between atoms: _260  and  _262
REMARK  114  A    between atoms: _262  and  _263
REMARK  115  A    between atoms: _265  and  _267
REMARK  116  A    between atoms: _267  and  _268
REMARK  117  A    between atoms: _267  and  _270
REMARK  118  A    between atoms: _270  and  _271
REMARK  119  A    between atoms: _271  and  _272
REMARK  120  A    between atoms: _272  and  _273
REMARK  121  A    between atoms: _282  and  _284
REMARK  122  A    between atoms: _284  and  _285
REMARK  123  A    between atoms: _287  and  _289
REMARK  124  A    between atoms: _289  and  _290
REMARK  125  A    between atoms: _289  and  _292
REMARK  126  A    between atoms: _292  and  _293
REMARK  127  A    between atoms: _294  and  _296
REMARK  128  A    between atoms: _296  and  _297
REMARK  129  A    between atoms: _300  and  _302
REMARK  130  A    between atoms: _302  and  _303
REMARK  131  A    between atoms: _302  and  _305
REMARK  132  A    between atoms: _305  and  _306
REMARK  133  A    between atoms: _309  and  _311
REMARK  134  A    between atoms: _311  and  _312
REMARK  135  A    between atoms: _311  and  _314
REMARK  136  A    between atoms: _314  and  _315
REMARK  137  A    between atoms: _315  and  _316
REMARK  138  A    between atoms: _316  and  _317
REMARK  139  A    between atoms: _317  and  _318
REMARK  140  A    between atoms: _323  and  _324
REMARK  141  A    between atoms: _329  and  _331
REMARK  142  A    between atoms: _331  and  _332
REMARK  143  A    between atoms: _334  and  _336
REMARK  144  A    between atoms: _336  and  _337
REMARK  145  A    between atoms: _336  and  _339
REMARK  146  A    between atoms: _342  and  _344
REMARK  147  A    between atoms: _344  and  _345
REMARK  148  A    between atoms: _344  and  _347
REMARK  149  A    between atoms: _347  and  _348
REMARK  150  A    between atoms: _353  and  _354
REMARK                            x       y       z     vdW  Elec       q    Type
REMARK                         _______ _______ _______ _____ _____    ______ ____
ROOT
ATOM      1  O   HOH     1       5.949   4.787  24.934  0.00  0.00    +0.000 OA
ENDROOT
TORSDOF 0
REMARK  Name = ../refined-set-2016/1c5y/1c5y_pocket.pdb
REMARK  150 active torsions:
REMARK  status: ('A' for Active; 'I' for Inactive)
REMARK    1  A    between atoms: _1  and  _3
REMARK    2  A    between atoms: _3  and  _4
REMARK    3  A    between atoms: _3  and  _6
REMARK    4  A    between atoms: _6  and  _7
REMARK    5  A    between atoms: _10  and  _12
REMARK    6  A    between atoms: _12  and  _13
REMARK    7  A    between atoms: _12  and  _15
REMARK    8  A    between atoms: _15  and  _16
REMARK    9  A    between atoms: _16  and  _34
REMARK   10  A    between atoms: _17  and  _19
REMARK   11  A    between atoms: _19  and  _20
REMARK   12  A    between atoms: _19  and  _22
REMARK   13  A    between atoms: _22  and  _23
REMARK   14  A    between atoms: _28  and  _30
REMARK   15  A    between atoms: _30  and  _31
REMARK   16  A    between atoms: _30  and  _33
REMARK   17  A    between atoms: _33  and  _34
REMARK   18  A    between atoms: _35  and  _37
REMARK   19  A    between atoms: _37  and  _38
REMARK   20  A    between atoms: _37  and  _40
REMARK   21  A    between atoms: _40  and  _41
REMARK   22  A    between atoms: _44  and  _46
REMARK   23  A    between atoms: _46  and  _47
REMARK   24  A    between atoms: _46  and  _49
REMARK   25  A    between atoms: _49  and  _50
REMARK   26  A    between atoms: _55  and  _57
REMARK   27  A    between atoms: _57  and  _58
REMARK   28  A    between atoms: _57  and  _60
REMARK   29  A    between atoms: _60  and  _61
REMARK   30  A    between atoms: _64  and  _66
REMARK   31  A    between atoms: _66  and  _67
REMARK   32  A    between atoms: _66  and  _69
REMARK   33  A    between atoms: _69  and  _70
REMARK   34  A    between atoms: _73  and  _75
REMARK   35  A    between atoms: _75  and  _76
REMARK   36  A    between atoms: _75  and  _78
REMARK   37  A    between atoms: _78  and  _79
REMARK   38  A    between atoms: _79  and  _80
REMARK   39  A    between atoms: _80  and  _81
REMARK   40  A    between atoms: _81  and  _82
REMARK   41  A    between atoms: _86  and  _88
REMARK   42  A    between atoms: _88  and  _89
REMARK   43  A    between atoms: _88  and  _91
REMARK   44  A    between atoms: _91  and  _92
REMARK   45  A    between atoms: _94  and  _96
REMARK   46  A    between atoms: _96  and  _97
REMARK   47  A    between atoms: _96  and  _99
REMARK   48  A    between atoms: _99  and  _100
REMARK   49  A    between atoms: _105  and  _106
REMARK   50  A    between atoms: _108  and  _110
REMARK   51  A    between atoms: _110  and  _111
REMARK   52  A    between atoms: _110  and  _113
REMARK   53  A    between atoms: _116  and  _118
REMARK   54  A    between atoms: _118  and  _119
REMARK   55  A    between atoms: _118  and  _121
REMARK   56  A    between atoms: _121  and  _122
REMARK   57  A    between atoms: _127  and  _128
REMARK   58  A    between atoms: _130  and  _132
REMARK   59  A    between atoms: _132  and  _133
REMARK   60  A    between atoms: _136  and  _138
REMARK   61  A    between atoms: _138  and  _139
REMARK   62  A    between atoms: _142  and  _144
REMARK   63  A    between atoms: _144  and  _145
REMARK   64  A    between atoms: _144  and  _147
REMARK   65  A    between atoms: _147  and  _148
REMARK   66  A    between atoms: _151  and  _153
REMARK   67  A    between atoms: _153  and  _154
REMARK   68  A    between atoms: _153  and  _156
REMARK   69  A    between atoms: _156  and  _157
REMARK   70  A    between atoms: _160  and  _162
REMARK   71  A    between atoms: _162  and  _163
REMARK   72  A    between atoms: _162  and  _165
REMARK   73  A    between atoms: _165  and  _166
REMARK   74  A    between atoms: _168  and  _170
REMARK   75  A    between atoms: _170  and  _171
REMARK   76  A    between atoms: _170  and  _173
REMARK   77  A    between atoms: _173  and  _174
REMARK   78  A    between atoms: _174  and  _293
REMARK   79  A    between atoms: _175  and  _177
REMARK   80  A    between atoms: _177  and  _178
REMARK   81  A    between atoms: _177  and  _180
REMARK   82  A    between atoms: _180  and  _181
REMARK   83  A    between atoms: _181  and  _182
REMARK   84  A    between atoms: _187  and  _189
REMARK   85  A    between atoms: _189  and  _190
REMARK   86  A    between atoms: _192  and  _194
REMARK   87  A    between atoms: _194  and  _195
REMARK   88  A    between atoms: _194  and  _197
REMARK   89  A    between atoms: _197  and  _198
REMARK   90  A    between atoms: _201  and  _203
REMARK   91  A    between atoms: _203  and  _204
REMARK   92  A    between atoms: _203  and  _206
REMARK   93  A    between atoms: _206  and  _207
REMARK   94  A    between atoms: _209  and  _211
REMARK   95  A    between atoms: _211  and  _212
REMARK   96  A    between atoms: _214  and  _216
REMARK   97  A    between atoms: _216  and  _217
REMARK   98  A    between atoms: _219  and  _221
REMARK   99  A    between atoms: _221  and  _222
REMARK  100  A    between atoms: _221  and  _224
REMARK  101  A    between atoms: _224  and  _225
REMARK  102  A    between atoms: _228  and  _230
REMARK  103  A    between atoms: _230  and  _231
REMARK  104  A    between atoms: _230  and  _233
REMARK  105  A    between atoms: _236  and  _238
REMARK  106  A    between atoms: _238  and  _239
REMARK  107  A    between atoms: _238  and  _241
REMARK  108  A    between atoms: _241  and  _242
REMARK  109  A    between atoms: _244  and  _246
REMARK  110  A    between atoms: _246  and  _247
REMARK  111  A    between atoms: _246  and  _249
REMARK  112  A    between atoms: _249  and  _250
REMARK  113  A    between atoms: _260  and  _262
REMARK  114  A    between atoms: _262  and  _263
REMARK  115  A    between atoms: _265  and  _267
REMARK  116  A    between atoms: _267  and  _268
REMARK  117  A    between atoms: _267  and  _270
REMARK  118  A    between atoms: _270  and  _271
REMARK  119  A    between atoms: _271  and  _272
REMARK  120  A    between atoms: _272  and  _273
REMARK  121  A    between atoms: _282  and  _284
REMARK  122  A    between atoms: _284  and  _285
REMARK  123  A    between atoms: _287  and  _289
REMARK  124  A    between atoms: _289  and  _290
REMARK  125  A    between atoms: _289  and  _292
REMARK  126  A    between atoms: _292  and  _293
REMARK  127  A    between atoms: _294  and  _296
REMARK  128  A    between atoms: _296  and  _297
REMARK  129  A    between atoms: _300  and  _302
REMARK  130  A    between atoms: _302  and  _303
REMARK  131  A    between atoms: _302  and  _305
REMARK  132  A    between atoms: _305  and  _306
REMARK  133  A    between atoms: _309  and  _311
REMARK  134  A    between atoms: _311  and  _312
REMARK  135  A    between atoms: _311  and  _314
REMARK  136  A    between atoms: _314  and  _315
REMARK  137  A    between atoms: _315  and  _316
REMARK  138  A    between atoms: _316  and  _317
REMARK  139  A    between atoms: _317  and  _318
REMARK  140  A    between atoms: _323  and  _324
REMARK  141  A    between atoms: _329  and  _331
REMARK  142  A    between atoms: _331  and  _332
REMARK  143  A    between atoms: _334  and  _336
REMARK  144  A    between atoms: _336  and  _337
REMARK  145  A    between atoms: _336  and  _339
REMARK  146  A    between atoms: _342  and  _344
REMARK  147  A    between atoms: _344  and  _345
REMARK  148  A    between atoms: _344  and  _347
REMARK  149  A    between atoms: _347  and  _348
REMARK  150  A    between atoms: _353  and  _354
REMARK                            x       y       z     vdW  Elec       q    Type
REMARK                         _______ _______ _______ _____ _____    ______ ____
ROOT
ATOM      1  O   HOH     1       8.320  -1.490  21.954  0.00  0.00    +0.000 OA
ENDROOT
TORSDOF 0
REMARK  Name = ../refined-set-2016/1c5y/1c5y_pocket.pdb
REMARK  150 active torsions:
REMARK  status: ('A' for Active; 'I' for Inactive)
REMARK    1  A    between atoms: _1  and  _3
REMARK    2  A    between atoms: _3  and  _4
REMARK    3  A    between atoms: _3  and  _6
REMARK    4  A    between atoms: _6  and  _7
REMARK    5  A    between atoms: _10  and  _12
REMARK    6  A    between atoms: _12  and  _13
REMARK    7  A    between atoms: _12  and  _15
REMARK    8  A    between atoms: _15  and  _16
REMARK    9  A    between atoms: _16  and  _34
REMARK   10  A    between atoms: _17  and  _19
REMARK   11  A    between atoms: _19  and  _20
REMARK   12  A    between atoms: _19  and  _22
REMARK   13  A    between atoms: _22  and  _23
REMARK   14  A    between atoms: _28  and  _30
REMARK   15  A    between atoms: _30  and  _31
REMARK   16  A    between atoms: _30  and  _33
REMARK   17  A    between atoms: _33  and  _34
REMARK   18  A    between atoms: _35  and  _37
REMARK   19  A    between atoms: _37  and  _38
REMARK   20  A    between atoms: _37  and  _40
REMARK   21  A    between atoms: _40  and  _41
REMARK   22  A    between atoms: _44  and  _46
REMARK   23  A    between atoms: _46  and  _47
REMARK   24  A    between atoms: _46  and  _49
REMARK   25  A    between atoms: _49  and  _50
REMARK   26  A    between atoms: _55  and  _57
REMARK   27  A    between atoms: _57  and  _58
REMARK   28  A    between atoms: _57  and  _60
REMARK   29  A    between atoms: _60  and  _61
REMARK   30  A    between atoms: _64  and  _66
REMARK   31  A    between atoms: _66  and  _67
REMARK   32  A    between atoms: _66  and  _69
REMARK   33  A    between atoms: _69  and  _70
REMARK   34  A    between atoms: _73  and  _75
REMARK   35  A    between atoms: _75  and  _76
REMARK   36  A    between atoms: _75  and  _78
REMARK   37  A    between atoms: _78  and  _79
REMARK   38  A    between atoms: _79  and  _80
REMARK   39  A    between atoms: _80  and  _81
REMARK   40  A    between atoms: _81  and  _82
REMARK   41  A    between atoms: _86  and  _88
REMARK   42  A    between atoms: _88  and  _89
REMARK   43  A    between atoms: _88  and  _91
REMARK   44  A    between atoms: _91  and  _92
REMARK   45  A    between atoms: _94  and  _96
REMARK   46  A    between atoms: _96  and  _97
REMARK   47  A    between atoms: _96  and  _99
REMARK   48  A    between atoms: _99  and  _100
REMARK   49  A    between atoms: _105  and  _106
REMARK   50  A    between atoms: _108  and  _110
REMARK   51  A    between atoms: _110  and  _111
REMARK   52  A    between atoms: _110  and  _113
REMARK   53  A    between atoms: _116  and  _118
REMARK   54  A    between atoms: _118  and  _119
REMARK   55  A    between atoms: _118  and  _121
REMARK   56  A    between atoms: _121  and  _122
REMARK   57  A    between atoms: _127  and  _128
REMARK   58  A    between atoms: _130  and  _132
REMARK   59  A    between atoms: _132  and  _133
REMARK   60  A    between atoms: _136  and  _138
REMARK   61  A    between atoms: _138  and  _139
REMARK   62  A    between atoms: _142  and  _144
REMARK   63  A    between atoms: _144  and  _145
REMARK   64  A    between atoms: _144  and  _147
REMARK   65  A    between atoms: _147  and  _148
REMARK   66  A    between atoms: _151  and  _153
REMARK   67  A    between atoms: _153  and  _154
REMARK   68  A    between atoms: _153  and  _156
REMARK   69  A    between atoms: _156  and  _157
REMARK   70  A    between atoms: _160  and  _162
REMARK   71  A    between atoms: _162  and  _163
REMARK   72  A    between atoms: _162  and  _165
REMARK   73  A    between atoms: _165  and  _166
REMARK   74  A    between atoms: _168  and  _170
REMARK   75  A    between atoms: _170  and  _171
REMARK   76  A    between atoms: _170  and  _173
REMARK   77  A    between atoms: _173  and  _174
REMARK   78  A    between atoms: _174  and  _293
REMARK   79  A    between atoms: _175  and  _177
REMARK   80  A    between atoms: _177  and  _178
REMARK   81  A    between atoms: _177  and  _180
REMARK   82  A    between atoms: _180  and  _181
REMARK   83  A    between atoms: _181  and  _182
REMARK   84  A    between atoms: _187  and  _189
REMARK   85  A    between atoms: _189  and  _190
REMARK   86  A    between atoms: _192  and  _194
REMARK   87  A    between atoms: _194  and  _195
REMARK   88  A    between atoms: _194  and  _197
REMARK   89  A    between atoms: _197  and  _198
REMARK   90  A    between atoms: _201  and  _203
REMARK   91  A    between atoms: _203  and  _204
REMARK   92  A    between atoms: _203  and  _206
REMARK   93  A    between atoms: _206  and  _207
REMARK   94  A    between atoms: _209  and  _211
REMARK   95  A    between atoms: _211  and  _212
REMARK   96  A    between atoms: _214  and  _216
REMARK   97  A    between atoms: _216  and  _217
REMARK   98  A    between atoms: _219  and  _221
REMARK   99  A    between atoms: _221  and  _222
REMARK  100  A    between atoms: _221  and  _224
REMARK  101  A    between atoms: _224  and  _225
REMARK  102  A    between atoms: _228  and  _230
REMARK  103  A    between atoms: _230  and  _231
REMARK  104  A    between atoms: _230  and  _233
REMARK  105  A    between atoms: _236  and  _238
REMARK  106  A    between atoms: _238  and  _239
REMARK  107  A    between atoms: _238  and  _241
REMARK  108  A    between atoms: _241  and  _242
REMARK  109  A    between atoms: _244  and  _246
REMARK  110  A    between atoms: _246  and  _247
REMARK  111  A    between atoms: _246  and  _249
REMARK  112  A    between atoms: _249  and  _250
REMARK  113  A    between atoms: _260  and  _262
REMARK  114  A    between atoms: _262  and  _263
REMARK  115  A    between atoms: _265  and  _267
REMARK  116  A    between atoms: _267  and  _268
REMARK  117  A    between atoms: _267  and  _270
REMARK  118  A    between atoms: _270  and  _271
REMARK  119  A    between atoms: _271  and  _272
REMARK  120  A    between atoms: _272  and  _273
REMARK  121  A    between atoms: _282  and  _284
REMARK  122  A    between atoms: _284  and  _285
REMARK  123  A    between atoms: _287  and  _289
REMARK  124  A    between atoms: _289  and  _290
REMARK  125  A    between atoms: _289  and  _292
REMARK  126  A    between atoms: _292  and  _293
REMARK  127  A    between atoms: _294  and  _296
REMARK  128  A    between atoms: _296  and  _297
REMARK  129  A    between atoms: _300  and  _302
REMARK  130  A    between atoms: _302  and  _303
REMARK  131  A    between atoms: _302  and  _305
REMARK  132  A    between atoms: _305  and  _306
REMARK  133  A    between atoms: _309  and  _311
REMARK  134  A    between atoms: _311  and  _312
REMARK  135  A    between atoms: _311  and  _314
REMARK  136  A    between atoms: _314  and  _315
REMARK  137  A    between atoms: _315  and  _316
REMARK  138  A    between atoms: _316  and  _317
REMARK  139  A    between atoms: _317  and  _318
REMARK  140  A    between atoms: _323  and  _324
REMARK  141  A    between atoms: _329  and  _331
REMARK  142  A    between atoms: _331  and  _332
REMARK  143  A    between atoms: _334  and  _336
REMARK  144  A    between atoms: _336  and  _337
REMARK  145  A    between atoms: _336  and  _339
REMARK  146  A    between atoms: _342  and  _344
REMARK  147  A    between atoms: _344  and  _345
REMARK  148  A    between atoms: _344  and  _347
REMARK  149  A    between atoms: _347  and  _348
REMARK  150  A    between atoms: _353  and  _354
REMARK                            x       y       z     vdW  Elec       q    Type
REMARK                         _______ _______ _______ _____ _____    ______ ____
ROOT
ATOM      1  O   HOH     1       7.440   6.498  21.890  0.00  0.00    +0.000 OA
ENDROOT
TORSDOF 0
REMARK  Name = ../refined-set-2016/1c5y/1c5y_pocket.pdb
REMARK  150 active torsions:
REMARK  status: ('A' for Active; 'I' for Inactive)
REMARK    1  A    between atoms: _1  and  _3
REMARK    2  A    between atoms: _3  and  _4
REMARK    3  A    between atoms: _3  and  _6
REMARK    4  A    between atoms: _6  and  _7
REMARK    5  A    between atoms: _10  and  _12
REMARK    6  A    between atoms: _12  and  _13
REMARK    7  A    between atoms: _12  and  _15
REMARK    8  A    between atoms: _15  and  _16
REMARK    9  A    between atoms: _16  and  _34
REMARK   10  A    between atoms: _17  and  _19
REMARK   11  A    between atoms: _19  and  _20
REMARK   12  A    between atoms: _19  and  _22
REMARK   13  A    between atoms: _22  and  _23
REMARK   14  A    between atoms: _28  and  _30
REMARK   15  A    between atoms: _30  and  _31
REMARK   16  A    between atoms: _30  and  _33
REMARK   17  A    between atoms: _33  and  _34
REMARK   18  A    between atoms: _35  and  _37
REMARK   19  A    between atoms: _37  and  _38
REMARK   20  A    between atoms: _37  and  _40
REMARK   21  A    between atoms: _40  and  _41
REMARK   22  A    between atoms: _44  and  _46
REMARK   23  A    between atoms: _46  and  _47
REMARK   24  A    between atoms: _46  and  _49
REMARK   25  A    between atoms: _49  and  _50
REMARK   26  A    between atoms: _55  and  _57
REMARK   27  A    between atoms: _57  and  _58
REMARK   28  A    between atoms: _57  and  _60
REMARK   29  A    between atoms: _60  and  _61
REMARK   30  A    between atoms: _64  and  _66
REMARK   31  A    between atoms: _66  and  _67
REMARK   32  A    between atoms: _66  and  _69
REMARK   33  A    between atoms: _69  and  _70
REMARK   34  A    between atoms: _73  and  _75
REMARK   35  A    between atoms: _75  and  _76
REMARK   36  A    between atoms: _75  and  _78
REMARK   37  A    between atoms: _78  and  _79
REMARK   38  A    between atoms: _79  and  _80
REMARK   39  A    between atoms: _80  and  _81
REMARK   40  A    between atoms: _81  and  _82
REMARK   41  A    between atoms: _86  and  _88
REMARK   42  A    between atoms: _88  and  _89
REMARK   43  A    between atoms: _88  and  _91
REMARK   44  A    between atoms: _91  and  _92
REMARK   45  A    between atoms: _94  and  _96
REMARK   46  A    between atoms: _96  and  _97
REMARK   47  A    between atoms: _96  and  _99
REMARK   48  A    between atoms: _99  and  _100
REMARK   49  A    between atoms: _105  and  _106
REMARK   50  A    between atoms: _108  and  _110
REMARK   51  A    between atoms: _110  and  _111
REMARK   52  A    between atoms: _110  and  _113
REMARK   53  A    between atoms: _116  and  _118
REMARK   54  A    between atoms: _118  and  _119
REMARK   55  A    between atoms: _118  and  _121
REMARK   56  A    between atoms: _121  and  _122
REMARK   57  A    between atoms: _127  and  _128
REMARK   58  A    between atoms: _130  and  _132
REMARK   59  A    between atoms: _132  and  _133
REMARK   60  A    between atoms: _136  and  _138
REMARK   61  A    between atoms: _138  and  _139
REMARK   62  A    between atoms: _142  and  _144
REMARK   63  A    between atoms: _144  and  _145
REMARK   64  A    between atoms: _144  and  _147
REMARK   65  A    between atoms: _147  and  _148
REMARK   66  A    between atoms: _151  and  _153
REMARK   67  A    between atoms: _153  and  _154
REMARK   68  A    between atoms: _153  and  _156
REMARK   69  A    between atoms: _156  and  _157
REMARK   70  A    between atoms: _160  and  _162
REMARK   71  A    between atoms: _162  and  _163
REMARK   72  A    between atoms: _162  and  _165
REMARK   73  A    between atoms: _165  and  _166
REMARK   74  A    between atoms: _168  and  _170
REMARK   75  A    between atoms: _170  and  _171
REMARK   76  A    between atoms: _170  and  _173
REMARK   77  A    between atoms: _173  and  _174
REMARK   78  A    between atoms: _174  and  _293
REMARK   79  A    between atoms: _175  and  _177
REMARK   80  A    between atoms: _177  and  _178
REMARK   81  A    between atoms: _177  and  _180
REMARK   82  A    between atoms: _180  and  _181
REMARK   83  A    between atoms: _181  and  _182
REMARK   84  A    between atoms: _187  and  _189
REMARK   85  A    between atoms: _189  and  _190
REMARK   86  A    between atoms: _192  and  _194
REMARK   87  A    between atoms: _194  and  _195
REMARK   88  A    between atoms: _194  and  _197
REMARK   89  A    between atoms: _197  and  _198
REMARK   90  A    between atoms: _201  and  _203
REMARK   91  A    between atoms: _203  and  _204
REMARK   92  A    between atoms: _203  and  _206
REMARK   93  A    between atoms: _206  and  _207
REMARK   94  A    between atoms: _209  and  _211
REMARK   95  A    between atoms: _211  and  _212
REMARK   96  A    between atoms: _214  and  _216
REMARK   97  A    between atoms: _216  and  _217
REMARK   98  A    between atoms: _219  and  _221
REMARK   99  A    between atoms: _221  and  _222
REMARK  100  A    between atoms: _221  and  _224
REMARK  101  A    between atoms: _224  and  _225
REMARK  102  A    between atoms: _228  and  _230
REMARK  103  A    between atoms: _230  and  _231
REMARK  104  A    between atoms: _230  and  _233
REMARK  105  A    between atoms: _236  and  _238
REMARK  106  A    between atoms: _238  and  _239
REMARK  107  A    between atoms: _238  and  _241
REMARK  108  A    between atoms: _241  and  _242
REMARK  109  A    between atoms: _244  and  _246
REMARK  110  A    between atoms: _246  and  _247
REMARK  111  A    between atoms: _246  and  _249
REMARK  112  A    between atoms: _249  and  _250
REMARK  113  A    between atoms: _260  and  _262
REMARK  114  A    between atoms: _262  and  _263
REMARK  115  A    between atoms: _265  and  _267
REMARK  116  A    between atoms: _267  and  _268
REMARK  117  A    between atoms: _267  and  _270
REMARK  118  A    between atoms: _270  and  _271
REMARK  119  A    between atoms: _271  and  _272
REMARK  120  A    between atoms: _272  and  _273
REMARK  121  A    between atoms: _282  and  _284
REMARK  122  A    between atoms: _284  and  _285
REMARK  123  A    between atoms: _287  and  _289
REMARK  124  A    between atoms: _289  and  _290
REMARK  125  A    between atoms: _289  and  _292
REMARK  126  A    between atoms: _292  and  _293
REMARK  127  A    between atoms: _294  and  _296
REMARK  128  A    between atoms: _296  and  _297
REMARK  129  A    between atoms: _300  and  _302
REMARK  130  A    between atoms: _302  and  _303
REMARK  131  A    between atoms: _302  and  _305
REMARK  132  A    between atoms: _305  and  _306
REMARK  133  A    between atoms: _309  and  _311
REMARK  134  A    between atoms: _311  and  _312
REMARK  135  A    between atoms: _311  and  _314
REMARK  136  A    between atoms: _314  and  _315
REMARK  137  A    between atoms: _315  and  _316
REMARK  138  A    between atoms: _316  and  _317
REMARK  139  A    between atoms: _317  and  _318
REMARK  140  A    between atoms: _323  and  _324
REMARK  141  A    between atoms: _329  and  _331
REMARK  142  A    between atoms: _331  and  _332
REMARK  143  A    between atoms: _334  and  _336
REMARK  144  A    between atoms: _336  and  _337
REMARK  145  A    between atoms: _336  and  _339
REMARK  146  A    between atoms: _342  and  _344
REMARK  147  A    between atoms: _344  and  _345
REMARK  148  A    between atoms: _344  and  _347
REMARK  149  A    between atoms: _347  and  _348
REMARK  150  A    between atoms: _353  and  _354
REMARK                            x       y       z     vdW  Elec       q    Type
REMARK                         _______ _______ _______ _____ _____    ______ ____
ROOT
ATOM      1  O   HOH     1       6.395  -5.610  28.837  0.00  0.00    +0.000 OA
ENDROOT
TORSDOF 0
REMARK  Name = ../refined-set-2016/1c5y/1c5y_pocket.pdb
REMARK  150 active torsions:
REMARK  status: ('A' for Active; 'I' for Inactive)
REMARK    1  A    between atoms: _1  and  _3
REMARK    2  A    between atoms: _3  and  _4
REMARK    3  A    between atoms: _3  and  _6
REMARK    4  A    between atoms: _6  and  _7
REMARK    5  A    between atoms: _10  and  _12
REMARK    6  A    between atoms: _12  and  _13
REMARK    7  A    between atoms: _12  and  _15
REMARK    8  A    between atoms: _15  and  _16
REMARK    9  A    between atoms: _16  and  _34
REMARK   10  A    between atoms: _17  and  _19
REMARK   11  A    between atoms: _19  and  _20
REMARK   12  A    between atoms: _19  and  _22
REMARK   13  A    between atoms: _22  and  _23
REMARK   14  A    between atoms: _28  and  _30
REMARK   15  A    between atoms: _30  and  _31
REMARK   16  A    between atoms: _30  and  _33
REMARK   17  A    between atoms: _33  and  _34
REMARK   18  A    between atoms: _35  and  _37
REMARK   19  A    between atoms: _37  and  _38
REMARK   20  A    between atoms: _37  and  _40
REMARK   21  A    between atoms: _40  and  _41
REMARK   22  A    between atoms: _44  and  _46
REMARK   23  A    between atoms: _46  and  _47
REMARK   24  A    between atoms: _46  and  _49
REMARK   25  A    between atoms: _49  and  _50
REMARK   26  A    between atoms: _55  and  _57
REMARK   27  A    between atoms: _57  and  _58
REMARK   28  A    between atoms: _57  and  _60
REMARK   29  A    between atoms: _60  and  _61
REMARK   30  A    between atoms: _64  and  _66
REMARK   31  A    between atoms: _66  and  _67
REMARK   32  A    between atoms: _66  and  _69
REMARK   33  A    between atoms: _69  and  _70
REMARK   34  A    between atoms: _73  and  _75
REMARK   35  A    between atoms: _75  and  _76
REMARK   36  A    between atoms: _75  and  _78
REMARK   37  A    between atoms: _78  and  _79
REMARK   38  A    between atoms: _79  and  _80
REMARK   39  A    between atoms: _80  and  _81
REMARK   40  A    between atoms: _81  and  _82
REMARK   41  A    between atoms: _86  and  _88
REMARK   42  A    between atoms: _88  and  _89
REMARK   43  A    between atoms: _88  and  _91
REMARK   44  A    between atoms: _91  and  _92
REMARK   45  A    between atoms: _94  and  _96
REMARK   46  A    between atoms: _96  and  _97
REMARK   47  A    between atoms: _96  and  _99
REMARK   48  A    between atoms: _99  and  _100
REMARK   49  A    between atoms: _105  and  _106
REMARK   50  A    between atoms: _108  and  _110
REMARK   51  A    between atoms: _110  and  _111
REMARK   52  A    between atoms: _110  and  _113
REMARK   53  A    between atoms: _116  and  _118
REMARK   54  A    between atoms: _118  and  _119
REMARK   55  A    between atoms: _118  and  _121
REMARK   56  A    between atoms: _121  and  _122
REMARK   57  A    between atoms: _127  and  _128
REMARK   58  A    between atoms: _130  and  _132
REMARK   59  A    between atoms: _132  and  _133
REMARK   60  A    between atoms: _136  and  _138
REMARK   61  A    between atoms: _138  and  _139
REMARK   62  A    between atoms: _142  and  _144
REMARK   63  A    between atoms: _144  and  _145
REMARK   64  A    between atoms: _144  and  _147
REMARK   65  A    between atoms: _147  and  _148
REMARK   66  A    between atoms: _151  and  _153
REMARK   67  A    between atoms: _153  and  _154
REMARK   68  A    between atoms: _153  and  _156
REMARK   69  A    between atoms: _156  and  _157
REMARK   70  A    between atoms: _160  and  _162
REMARK   71  A    between atoms: _162  and  _163
REMARK   72  A    between atoms: _162  and  _165
REMARK   73  A    between atoms: _165  and  _166
REMARK   74  A    between atoms: _168  and  _170
REMARK   75  A    between atoms: _170  and  _171
REMARK   76  A    between atoms: _170  and  _173
REMARK   77  A    between atoms: _173  and  _174
REMARK   78  A    between atoms: _174  and  _293
REMARK   79  A    between atoms: _175  and  _177
REMARK   80  A    between atoms: _177  and  _178
REMARK   81  A    between atoms: _177  and  _180
REMARK   82  A    between atoms: _180  and  _181
REMARK   83  A    between atoms: _181  and  _182
REMARK   84  A    between atoms: _187  and  _189
REMARK   85  A    between atoms: _189  and  _190
REMARK   86  A    between atoms: _192  and  _194
REMARK   87  A    between atoms: _194  and  _195
REMARK   88  A    between atoms: _194  and  _197
REMARK   89  A    between atoms: _197  and  _198
REMARK   90  A    between atoms: _201  and  _203
REMARK   91  A    between atoms: _203  and  _204
REMARK   92  A    between atoms: _203  and  _206
REMARK   93  A    between atoms: _206  and  _207
REMARK   94  A    between atoms: _209  and  _211
REMARK   95  A    between atoms: _211  and  _212
REMARK   96  A    between atoms: _214  and  _216
REMARK   97  A    between atoms: _216  and  _217
REMARK   98  A    between atoms: _219  and  _221
REMARK   99  A    between atoms: _221  and  _222
REMARK  100  A    between atoms: _221  and  _224
REMARK  101  A    between atoms: _224  and  _225
REMARK  102  A    between atoms: _228  and  _230
REMARK  103  A    between atoms: _230  and  _231
REMARK  104  A    between atoms: _230  and  _233
REMARK  105  A    between atoms: _236  and  _238
REMARK  106  A    between atoms: _238  and  _239
REMARK  107  A    between atoms: _238  and  _241
REMARK  108  A    between atoms: _241  and  _242
REMARK  109  A    between atoms: _244  and  _246
REMARK  110  A    between atoms: _246  and  _247
REMARK  111  A    between atoms: _246  and  _249
REMARK  112  A    between atoms: _249  and  _250
REMARK  113  A    between atoms: _260  and  _262
REMARK  114  A    between atoms: _262  and  _263
REMARK  115  A    between atoms: _265  and  _267
REMARK  116  A    between atoms: _267  and  _268
REMARK  117  A    between atoms: _267  and  _270
REMARK  118  A    between atoms: _270  and  _271
REMARK  119  A    between atoms: _271  and  _272
REMARK  120  A    between atoms: _272  and  _273
REMARK  121  A    between atoms: _282  and  _284
REMARK  122  A    between atoms: _284  and  _285
REMARK  123  A    between atoms: _287  and  _289
REMARK  124  A    between atoms: _289  and  _290
REMARK  125  A    between atoms: _289  and  _292
REMARK  126  A    between atoms: _292  and  _293
REMARK  127  A    between atoms: _294  and  _296
REMARK  128  A    between atoms: _296  and  _297
REMARK  129  A    between atoms: _300  and  _302
REMARK  130  A    between atoms: _302  and  _303
REMARK  131  A    between atoms: _302  and  _305
REMARK  132  A    between atoms: _305  and  _306
REMARK  133  A    between atoms: _309  and  _311
REMARK  134  A    between atoms: _311  and  _312
REMARK  135  A    between atoms: _311  and  _314
REMARK  136  A    between atoms: _314  and  _315
REMARK  137  A    between atoms: _315  and  _316
REMARK  138  A    between atoms: _316  and  _317
REMARK  139  A    between atoms: _317  and  _318
REMARK  140  A    between atoms: _323  and  _324
REMARK  141  A    between atoms: _329  and  _331
REMARK  142  A    between atoms: _331  and  _332
REMARK  143  A    between atoms: _334  and  _336
REMARK  144  A    between atoms: _336  and  _337
REMARK  145  A    between atoms: _336  and  _339
REMARK  146  A    between atoms: _342  and  _344
REMARK  147  A    between atoms: _344  and  _345
REMARK  148  A    between atoms: _344  and  _347
REMARK  149  A    between atoms: _347  and  _348
REMARK  150  A    between atoms: _353  and  _354
REMARK                            x       y       z     vdW  Elec       q    Type
REMARK                         _______ _______ _______ _____ _____    ______ ____
ROOT
ATOM      1  O   HOH     1       7.706   1.430  33.887  0.00  0.00    +0.000 OA
ENDROOT
TORSDOF 0
REMARK  Name = ../refined-set-2016/1c5y/1c5y_pocket.pdb
REMARK  150 active torsions:
REMARK  status: ('A' for Active; 'I' for Inactive)
REMARK    1  A    between atoms: _1  and  _3
REMARK    2  A    between atoms: _3  and  _4
REMARK    3  A    between atoms: _3  and  _6
REMARK    4  A    between atoms: _6  and  _7
REMARK    5  A    between atoms: _10  and  _12
REMARK    6  A    between atoms: _12  and  _13
REMARK    7  A    between atoms: _12  and  _15
REMARK    8  A    between atoms: _15  and  _16
REMARK    9  A    between atoms: _16  and  _34
REMARK   10  A    between atoms: _17  and  _19
REMARK   11  A    between atoms: _19  and  _20
REMARK   12  A    between atoms: _19  and  _22
REMARK   13  A    between atoms: _22  and  _23
REMARK   14  A    between atoms: _28  and  _30
REMARK   15  A    between atoms: _30  and  _31
REMARK   16  A    between atoms: _30  and  _33
REMARK   17  A    between atoms: _33  and  _34
REMARK   18  A    between atoms: _35  and  _37
REMARK   19  A    between atoms: _37  and  _38
REMARK   20  A    between atoms: _37  and  _40
REMARK   21  A    between atoms: _40  and  _41
REMARK   22  A    between atoms: _44  and  _46
REMARK   23  A    between atoms: _46  and  _47
REMARK   24  A    between atoms: _46  and  _49
REMARK   25  A    between atoms: _49  and  _50
REMARK   26  A    between atoms: _55  and  _57
REMARK   27  A    between atoms: _57  and  _58
REMARK   28  A    between atoms: _57  and  _60
REMARK   29  A    between atoms: _60  and  _61
REMARK   30  A    between atoms: _64  and  _66
REMARK   31  A    between atoms: _66  and  _67
REMARK   32  A    between atoms: _66  and  _69
REMARK   33  A    between atoms: _69  and  _70
REMARK   34  A    between atoms: _73  and  _75
REMARK   35  A    between atoms: _75  and  _76
REMARK   36  A    between atoms: _75  and  _78
REMARK   37  A    between atoms: _78  and  _79
REMARK   38  A    between atoms: _79  and  _80
REMARK   39  A    between atoms: _80  and  _81
REMARK   40  A    between atoms: _81  and  _82
REMARK   41  A    between atoms: _86  and  _88
REMARK   42  A    between atoms: _88  and  _89
REMARK   43  A    between atoms: _88  and  _91
REMARK   44  A    between atoms: _91  and  _92
REMARK   45  A    between atoms: _94  and  _96
REMARK   46  A    between atoms: _96  and  _97
REMARK   47  A    between atoms: _96  and  _99
REMARK   48  A    between atoms: _99  and  _100
REMARK   49  A    between atoms: _105  and  _106
REMARK   50  A    between atoms: _108  and  _110
REMARK   51  A    between atoms: _110  and  _111
REMARK   52  A    between atoms: _110  and  _113
REMARK   53  A    between atoms: _116  and  _118
REMARK   54  A    between atoms: _118  and  _119
REMARK   55  A    between atoms: _118  and  _121
REMARK   56  A    between atoms: _121  and  _122
REMARK   57  A    between atoms: _127  and  _128
REMARK   58  A    between atoms: _130  and  _132
REMARK   59  A    between atoms: _132  and  _133
REMARK   60  A    between atoms: _136  and  _138
REMARK   61  A    between atoms: _138  and  _139
REMARK   62  A    between atoms: _142  and  _144
REMARK   63  A    between atoms: _144  and  _145
REMARK   64  A    between atoms: _144  and  _147
REMARK   65  A    between atoms: _147  and  _148
REMARK   66  A    between atoms: _151  and  _153
REMARK   67  A    between atoms: _153  and  _154
REMARK   68  A    between atoms: _153  and  _156
REMARK   69  A    between atoms: _156  and  _157
REMARK   70  A    between atoms: _160  and  _162
REMARK   71  A    between atoms: _162  and  _163
REMARK   72  A    between atoms: _162  and  _165
REMARK   73  A    between atoms: _165  and  _166
REMARK   74  A    between atoms: _168  and  _170
REMARK   75  A    between atoms: _170  and  _171
REMARK   76  A    between atoms: _170  and  _173
REMARK   77  A    between atoms: _173  and  _174
REMARK   78  A    between atoms: _174  and  _293
REMARK   79  A    between atoms: _175  and  _177
REMARK   80  A    between atoms: _177  and  _178
REMARK   81  A    between atoms: _177  and  _180
REMARK   82  A    between atoms: _180  and  _181
REMARK   83  A    between atoms: _181  and  _182
REMARK   84  A    between atoms: _187  and  _189
REMARK   85  A    between atoms: _189  and  _190
REMARK   86  A    between atoms: _192  and  _194
REMARK   87  A    between atoms: _194  and  _195
REMARK   88  A    between atoms: _194  and  _197
REMARK   89  A    between atoms: _197  and  _198
REMARK   90  A    between atoms: _201  and  _203
REMARK   91  A    between atoms: _203  and  _204
REMARK   92  A    between atoms: _203  and  _206
REMARK   93  A    between atoms: _206  and  _207
REMARK   94  A    between atoms: _209  and  _211
REMARK   95  A    between atoms: _211  and  _212
REMARK   96  A    between atoms: _214  and  _216
REMARK   97  A    between atoms: _216  and  _217
REMARK   98  A    between atoms: _219  and  _221
REMARK   99  A    between atoms: _221  and  _222
REMARK  100  A    between atoms: _221  and  _224
REMARK  101  A    between atoms: _224  and  _225
REMARK  102  A    between atoms: _228  and  _230
REMARK  103  A    between atoms: _230  and  _231
REMARK  104  A    between atoms: _230  and  _233
REMARK  105  A    between atoms: _236  and  _238
REMARK  106  A    between atoms: _238  and  _239
REMARK  107  A    between atoms: _238  and  _241
REMARK  108  A    between atoms: _241  and  _242
REMARK  109  A    between atoms: _244  and  _246
REMARK  110  A    between atoms: _246  and  _247
REMARK  111  A    between atoms: _246  and  _249
REMARK  112  A    between atoms: _249  and  _250
REMARK  113  A    between atoms: _260  and  _262
REMARK  114  A    between atoms: _262  and  _263
REMARK  115  A    between atoms: _265  and  _267
REMARK  116  A    between atoms: _267  and  _268
REMARK  117  A    between atoms: _267  and  _270
REMARK  118  A    between atoms: _270  and  _271
REMARK  119  A    between atoms: _271  and  _272
REMARK  120  A    between atoms: _272  and  _273
REMARK  121  A    between atoms: _282  and  _284
REMARK  122  A    between atoms: _284  and  _285
REMARK  123  A    between atoms: _287  and  _289
REMARK  124  A    between atoms: _289  and  _290
REMARK  125  A    between atoms: _289  and  _292
REMARK  126  A    between atoms: _292  and  _293
REMARK  127  A    between atoms: _294  and  _296
REMARK  128  A    between atoms: _296  and  _297
REMARK  129  A    between atoms: _300  and  _302
REMARK  130  A    between atoms: _302  and  _303
REMARK  131  A    between atoms: _302  and  _305
REMARK  132  A    between atoms: _305  and  _306
REMARK  133  A    between atoms: _309  and  _311
REMARK  134  A    between atoms: _311  and  _312
REMARK  135  A    between atoms: _311  and  _314
REMARK  136  A    between atoms: _314  and  _315
REMARK  137  A    between atoms: _315  and  _316
REMARK  138  A    between atoms: _316  and  _317
REMARK  139  A    between atoms: _317  and  _318
REMARK  140  A    between atoms: _323  and  _324
REMARK  141  A    between atoms: _329  and  _331
REMARK  142  A    between atoms: _331  and  _332
REMARK  143  A    between atoms: _334  and  _336
REMARK  144  A    between atoms: _336  and  _337
REMARK  145  A    between atoms: _336  and  _339
REMARK  146  A    between atoms: _342  and  _344
REMARK  147  A    between atoms: _344  and  _345
REMARK  148  A    between atoms: _344  and  _347
REMARK  149  A    between atoms: _347  and  _348
REMARK  150  A    between atoms: _353  and  _354
REMARK                            x       y       z     vdW  Elec       q    Type
REMARK                         _______ _______ _______ _____ _____    ______ ____
ROOT
ATOM      1  O   HOH     1       7.961   4.470  32.706  0.00  0.00    +0.000 OA
ENDROOT
TORSDOF 0
REMARK  Name = ../refined-set-2016/1c5y/1c5y_pocket.pdb
REMARK  150 active torsions:
REMARK  status: ('A' for Active; 'I' for Inactive)
REMARK    1  A    between atoms: _1  and  _3
REMARK    2  A    between atoms: _3  and  _4
REMARK    3  A    between atoms: _3  and  _6
REMARK    4  A    between atoms: _6  and  _7
REMARK    5  A    between atoms: _10  and  _12
REMARK    6  A    between atoms: _12  and  _13
REMARK    7  A    between atoms: _12  and  _15
REMARK    8  A    between atoms: _15  and  _16
REMARK    9  A    between atoms: _16  and  _34
REMARK   10  A    between atoms: _17  and  _19
REMARK   11  A    between atoms: _19  and  _20
REMARK   12  A    between atoms: _19  and  _22
REMARK   13  A    between atoms: _22  and  _23
REMARK   14  A    between atoms: _28  and  _30
REMARK   15  A    between atoms: _30  and  _31
REMARK   16  A    between atoms: _30  and  _33
REMARK   17  A    between atoms: _33  and  _34
REMARK   18  A    between atoms: _35  and  _37
REMARK   19  A    between atoms: _37  and  _38
REMARK   20  A    between atoms: _37  and  _40
REMARK   21  A    between atoms: _40  and  _41
REMARK   22  A    between atoms: _44  and  _46
REMARK   23  A    between atoms: _46  and  _47
REMARK   24  A    between atoms: _46  and  _49
REMARK   25  A    between atoms: _49  and  _50
REMARK   26  A    between atoms: _55  and  _57
REMARK   27  A    between atoms: _57  and  _58
REMARK   28  A    between atoms: _57  and  _60
REMARK   29  A    between atoms: _60  and  _61
REMARK   30  A    between atoms: _64  and  _66
REMARK   31  A    between atoms: _66  and  _67
REMARK   32  A    between atoms: _66  and  _69
REMARK   33  A    between atoms: _69  and  _70
REMARK   34  A    between atoms: _73  and  _75
REMARK   35  A    between atoms: _75  and  _76
REMARK   36  A    between atoms: _75  and  _78
REMARK   37  A    between atoms: _78  and  _79
REMARK   38  A    between atoms: _79  and  _80
REMARK   39  A    between atoms: _80  and  _81
REMARK   40  A    between atoms: _81  and  _82
REMARK   41  A    between atoms: _86  and  _88
REMARK   42  A    between atoms: _88  and  _89
REMARK   43  A    between atoms: _88  and  _91
REMARK   44  A    between atoms: _91  and  _92
REMARK   45  A    between atoms: _94  and  _96
REMARK   46  A    between atoms: _96  and  _97
REMARK   47  A    between atoms: _96  and  _99
REMARK   48  A    between atoms: _99  and  _100
REMARK   49  A    between atoms: _105  and  _106
REMARK   50  A    between atoms: _108  and  _110
REMARK   51  A    between atoms: _110  and  _111
REMARK   52  A    between atoms: _110  and  _113
REMARK   53  A    between atoms: _116  and  _118
REMARK   54  A    between atoms: _118  and  _119
REMARK   55  A    between atoms: _118  and  _121
REMARK   56  A    between atoms: _121  and  _122
REMARK   57  A    between atoms: _127  and  _128
REMARK   58  A    between atoms: _130  and  _132
REMARK   59  A    between atoms: _132  and  _133
REMARK   60  A    between atoms: _136  and  _138
REMARK   61  A    between atoms: _138  and  _139
REMARK   62  A    between atoms: _142  and  _144
REMARK   63  A    between atoms: _144  and  _145
REMARK   64  A    between atoms: _144  and  _147
REMARK   65  A    between atoms: _147  and  _148
REMARK   66  A    between atoms: _151  and  _153
REMARK   67  A    between atoms: _153  and  _154
REMARK   68  A    between atoms: _153  and  _156
REMARK   69  A    between atoms: _156  and  _157
REMARK   70  A    between atoms: _160  and  _162
REMARK   71  A    between atoms: _162  and  _163
REMARK   72  A    between atoms: _162  and  _165
REMARK   73  A    between atoms: _165  and  _166
REMARK   74  A    between atoms: _168  and  _170
REMARK   75  A    between atoms: _170  and  _171
REMARK   76  A    between atoms: _170  and  _173
REMARK   77  A    between atoms: _173  and  _174
REMARK   78  A    between atoms: _174  and  _293
REMARK   79  A    between atoms: _175  and  _177
REMARK   80  A    between atoms: _177  and  _178
REMARK   81  A    between atoms: _177  and  _180
REMARK   82  A    between atoms: _180  and  _181
REMARK   83  A    between atoms: _181  and  _182
REMARK   84  A    between atoms: _187  and  _189
REMARK   85  A    between atoms: _189  and  _190
REMARK   86  A    between atoms: _192  and  _194
REMARK   87  A    between atoms: _194  and  _195
REMARK   88  A    between atoms: _194  and  _197
REMARK   89  A    between atoms: _197  and  _198
REMARK   90  A    between atoms: _201  and  _203
REMARK   91  A    between atoms: _203  and  _204
REMARK   92  A    between atoms: _203  and  _206
REMARK   93  A    between atoms: _206  and  _207
REMARK   94  A    between atoms: _209  and  _211
REMARK   95  A    between atoms: _211  and  _212
REMARK   96  A    between atoms: _214  and  _216
REMARK   97  A    between atoms: _216  and  _217
REMARK   98  A    between atoms: _219  and  _221
REMARK   99  A    between atoms: _221  and  _222
REMARK  100  A    between atoms: _221  and  _224
REMARK  101  A    between atoms: _224  and  _225
REMARK  102  A    between atoms: _228  and  _230
REMARK  103  A    between atoms: _230  and  _231
REMARK  104  A    between atoms: _230  and  _233
REMARK  105  A    between atoms: _236  and  _238
REMARK  106  A    between atoms: _238  and  _239
REMARK  107  A    between atoms: _238  and  _241
REMARK  108  A    between atoms: _241  and  _242
REMARK  109  A    between atoms: _244  and  _246
REMARK  110  A    between atoms: _246  and  _247
REMARK  111  A    between atoms: _246  and  _249
REMARK  112  A    between atoms: _249  and  _250
REMARK  113  A    between atoms: _260  and  _262
REMARK  114  A    between atoms: _262  and  _263
REMARK  115  A    between atoms: _265  and  _267
REMARK  116  A    between atoms: _267  and  _268
REMARK  117  A    between atoms: _267  and  _270
REMARK  118  A    between atoms: _270  and  _271
REMARK  119  A    between atoms: _271  and  _272
REMARK  120  A    between atoms: _272  and  _273
REMARK  121  A    between atoms: _282  and  _284
REMARK  122  A    between atoms: _284  and  _285
REMARK  123  A    between atoms: _287  and  _289
REMARK  124  A    between atoms: _289  and  _290
REMARK  125  A    between atoms: _289  and  _292
REMARK  126  A    between atoms: _292  and  _293
REMARK  127  A    between atoms: _294  and  _296
REMARK  128  A    between atoms: _296  and  _297
REMARK  129  A    between atoms: _300  and  _302
REMARK  130  A    between atoms: _302  and  _303
REMARK  131  A    between atoms: _302  and  _305
REMARK  132  A    between atoms: _305  and  _306
REMARK  133  A    between atoms: _309  and  _311
REMARK  134  A    between atoms: _311  and  _312
REMARK  135  A    between atoms: _311  and  _314
REMARK  136  A    between atoms: _314  and  _315
REMARK  137  A    between atoms: _315  and  _316
REMARK  138  A    between atoms: _316  and  _317
REMARK  139  A    between atoms: _317  and  _318
REMARK  140  A    between atoms: _323  and  _324
REMARK  141  A    between atoms: _329  and  _331
REMARK  142  A    between atoms: _331  and  _332
REMARK  143  A    between atoms: _334  and  _336
REMARK  144  A    between atoms: _336  and  _337
REMARK  145  A    between atoms: _336  and  _339
REMARK  146  A    between atoms: _342  and  _344
REMARK  147  A    between atoms: _344  and  _345
REMARK  148  A    between atoms: _344  and  _347
REMARK  149  A    between atoms: _347  and  _348
REMARK  150  A    between atoms: _353  and  _354
REMARK                            x       y       z     vdW  Elec       q    Type
REMARK                         _______ _______ _______ _____ _____    ______ ____
ROOT
ATOM      1  O   HOH     1       5.426   9.068  30.074  0.00  0.00    +0.000 OA
ENDROOT
TORSDOF 0
REMARK  Name = ../refined-set-2016/1c5y/1c5y_pocket.pdb
REMARK  150 active torsions:
REMARK  status: ('A' for Active; 'I' for Inactive)
REMARK    1  A    between atoms: _1  and  _3
REMARK    2  A    between atoms: _3  and  _4
REMARK    3  A    between atoms: _3  and  _6
REMARK    4  A    between atoms: _6  and  _7
REMARK    5  A    between atoms: _10  and  _12
REMARK    6  A    between atoms: _12  and  _13
REMARK    7  A    between atoms: _12  and  _15
REMARK    8  A    between atoms: _15  and  _16
REMARK    9  A    between atoms: _16  and  _34
REMARK   10  A    between atoms: _17  and  _19
REMARK   11  A    between atoms: _19  and  _20
REMARK   12  A    between atoms: _19  and  _22
REMARK   13  A    between atoms: _22  and  _23
REMARK   14  A    between atoms: _28  and  _30
REMARK   15  A    between atoms: _30  and  _31
REMARK   16  A    between atoms: _30  and  _33
REMARK   17  A    between atoms: _33  and  _34
REMARK   18  A    between atoms: _35  and  _37
REMARK   19  A    between atoms: _37  and  _38
REMARK   20  A    between atoms: _37  and  _40
REMARK   21  A    between atoms: _40  and  _41
REMARK   22  A    between atoms: _44  and  _46
REMARK   23  A    between atoms: _46  and  _47
REMARK   24  A    between atoms: _46  and  _49
REMARK   25  A    between atoms: _49  and  _50
REMARK   26  A    between atoms: _55  and  _57
REMARK   27  A    between atoms: _57  and  _58
REMARK   28  A    between atoms: _57  and  _60
REMARK   29  A    between atoms: _60  and  _61
REMARK   30  A    between atoms: _64  and  _66
REMARK   31  A    between atoms: _66  and  _67
REMARK   32  A    between atoms: _66  and  _69
REMARK   33  A    between atoms: _69  and  _70
REMARK   34  A    between atoms: _73  and  _75
REMARK   35  A    between atoms: _75  and  _76
REMARK   36  A    between atoms: _75  and  _78
REMARK   37  A    between atoms: _78  and  _79
REMARK   38  A    between atoms: _79  and  _80
REMARK   39  A    between atoms: _80  and  _81
REMARK   40  A    between atoms: _81  and  _82
REMARK   41  A    between atoms: _86  and  _88
REMARK   42  A    between atoms: _88  and  _89
REMARK   43  A    between atoms: _88  and  _91
REMARK   44  A    between atoms: _91  and  _92
REMARK   45  A    between atoms: _94  and  _96
REMARK   46  A    between atoms: _96  and  _97
REMARK   47  A    between atoms: _96  and  _99
REMARK   48  A    between atoms: _99  and  _100
REMARK   49  A    between atoms: _105  and  _106
REMARK   50  A    between atoms: _108  and  _110
REMARK   51  A    between atoms: _110  and  _111
REMARK   52  A    between atoms: _110  and  _113
REMARK   53  A    between atoms: _116  and  _118
REMARK   54  A    between atoms: _118  and  _119
REMARK   55  A    between atoms: _118  and  _121
REMARK   56  A    between atoms: _121  and  _122
REMARK   57  A    between atoms: _127  and  _128
REMARK   58  A    between atoms: _130  and  _132
REMARK   59  A    between atoms: _132  and  _133
REMARK   60  A    between atoms: _136  and  _138
REMARK   61  A    between atoms: _138  and  _139
REMARK   62  A    between atoms: _142  and  _144
REMARK   63  A    between atoms: _144  and  _145
REMARK   64  A    between atoms: _144  and  _147
REMARK   65  A    between atoms: _147  and  _148
REMARK   66  A    between atoms: _151  and  _153
REMARK   67  A    between atoms: _153  and  _154
REMARK   68  A    between atoms: _153  and  _156
REMARK   69  A    between atoms: _156  and  _157
REMARK   70  A    between atoms: _160  and  _162
REMARK   71  A    between atoms: _162  and  _163
REMARK   72  A    between atoms: _162  and  _165
REMARK   73  A    between atoms: _165  and  _166
REMARK   74  A    between atoms: _168  and  _170
REMARK   75  A    between atoms: _170  and  _171
REMARK   76  A    between atoms: _170  and  _173
REMARK   77  A    between atoms: _173  and  _174
REMARK   78  A    between atoms: _174  and  _293
REMARK   79  A    between atoms: _175  and  _177
REMARK   80  A    between atoms: _177  and  _178
REMARK   81  A    between atoms: _177  and  _180
REMARK   82  A    between atoms: _180  and  _181
REMARK   83  A    between atoms: _181  and  _182
REMARK   84  A    between atoms: _187  and  _189
REMARK   85  A    between atoms: _189  and  _190
REMARK   86  A    between atoms: _192  and  _194
REMARK   87  A    between atoms: _194  and  _195
REMARK   88  A    between atoms: _194  and  _197
REMARK   89  A    between atoms: _197  and  _198
REMARK   90  A    between atoms: _201  and  _203
REMARK   91  A    between atoms: _203  and  _204
REMARK   92  A    between atoms: _203  and  _206
REMARK   93  A    between atoms: _206  and  _207
REMARK   94  A    between atoms: _209  and  _211
REMARK   95  A    between atoms: _211  and  _212
REMARK   96  A    between atoms: _214  and  _216
REMARK   97  A    between atoms: _216  and  _217
REMARK   98  A    between atoms: _219  and  _221
REMARK   99  A    between atoms: _221  and  _222
REMARK  100  A    between atoms: _221  and  _224
REMARK  101  A    between atoms: _224  and  _225
REMARK  102  A    between atoms: _228  and  _230
REMARK  103  A    between atoms: _230  and  _231
REMARK  104  A    between atoms: _230  and  _233
REMARK  105  A    between atoms: _236  and  _238
REMARK  106  A    between atoms: _238  and  _239
REMARK  107  A    between atoms: _238  and  _241
REMARK  108  A    between atoms: _241  and  _242
REMARK  109  A    between atoms: _244  and  _246
REMARK  110  A    between atoms: _246  and  _247
REMARK  111  A    between atoms: _246  and  _249
REMARK  112  A    between atoms: _249  and  _250
REMARK  113  A    between atoms: _260  and  _262
REMARK  114  A    between atoms: _262  and  _263
REMARK  115  A    between atoms: _265  and  _267
REMARK  116  A    between atoms: _267  and  _268
REMARK  117  A    between atoms: _267  and  _270
REMARK  118  A    between atoms: _270  and  _271
REMARK  119  A    between atoms: _271  and  _272
REMARK  120  A    between atoms: _272  and  _273
REMARK  121  A    between atoms: _282  and  _284
REMARK  122  A    between atoms: _284  and  _285
REMARK  123  A    between atoms: _287  and  _289
REMARK  124  A    between atoms: _289  and  _290
REMARK  125  A    between atoms: _289  and  _292
REMARK  126  A    between atoms: _292  and  _293
REMARK  127  A    between atoms: _294  and  _296
REMARK  128  A    between atoms: _296  and  _297
REMARK  129  A    between atoms: _300  and  _302
REMARK  130  A    between atoms: _302  and  _303
REMARK  131  A    between atoms: _302  and  _305
REMARK  132  A    between atoms: _305  and  _306
REMARK  133  A    between atoms: _309  and  _311
REMARK  134  A    between atoms: _311  and  _312
REMARK  135  A    between atoms: _311  and  _314
REMARK  136  A    between atoms: _314  and  _315
REMARK  137  A    between atoms: _315  and  _316
REMARK  138  A    between atoms: _316  and  _317
REMARK  139  A    between atoms: _317  and  _318
REMARK  140  A    between atoms: _323  and  _324
REMARK  141  A    between atoms: _329  and  _331
REMARK  142  A    between atoms: _331  and  _332
REMARK  143  A    between atoms: _334  and  _336
REMARK  144  A    between atoms: _336  and  _337
REMARK  145  A    between atoms: _336  and  _339
REMARK  146  A    between atoms: _342  and  _344
REMARK  147  A    between atoms: _344  and  _345
REMARK  148  A    between atoms: _344  and  _347
REMARK  149  A    between atoms: _347  and  _348
REMARK  150  A    between atoms: _353  and  _354
REMARK                            x       y       z     vdW  Elec       q    Type
REMARK                         _______ _______ _______ _____ _____    ______ ____
ROOT
ATOM      1  O   HOH     1      10.734  10.948  25.570  0.00  0.00    +0.000 OA
ENDROOT
TORSDOF 0
REMARK  Name = ../refined-set-2016/1c5y/1c5y_pocket.pdb
REMARK  150 active torsions:
REMARK  status: ('A' for Active; 'I' for Inactive)
REMARK    1  A    between atoms: _1  and  _3
REMARK    2  A    between atoms: _3  and  _4
REMARK    3  A    between atoms: _3  and  _6
REMARK    4  A    between atoms: _6  and  _7
REMARK    5  A    between atoms: _10  and  _12
REMARK    6  A    between atoms: _12  and  _13
REMARK    7  A    between atoms: _12  and  _15
REMARK    8  A    between atoms: _15  and  _16
REMARK    9  A    between atoms: _16  and  _34
REMARK   10  A    between atoms: _17  and  _19
REMARK   11  A    between atoms: _19  and  _20
REMARK   12  A    between atoms: _19  and  _22
REMARK   13  A    between atoms: _22  and  _23
REMARK   14  A    between atoms: _28  and  _30
REMARK   15  A    between atoms: _30  and  _31
REMARK   16  A    between atoms: _30  and  _33
REMARK   17  A    between atoms: _33  and  _34
REMARK   18  A    between atoms: _35  and  _37
REMARK   19  A    between atoms: _37  and  _38
REMARK   20  A    between atoms: _37  and  _40
REMARK   21  A    between atoms: _40  and  _41
REMARK   22  A    between atoms: _44  and  _46
REMARK   23  A    between atoms: _46  and  _47
REMARK   24  A    between atoms: _46  and  _49
REMARK   25  A    between atoms: _49  and  _50
REMARK   26  A    between atoms: _55  and  _57
REMARK   27  A    between atoms: _57  and  _58
REMARK   28  A    between atoms: _57  and  _60
REMARK   29  A    between atoms: _60  and  _61
REMARK   30  A    between atoms: _64  and  _66
REMARK   31  A    between atoms: _66  and  _67
REMARK   32  A    between atoms: _66  and  _69
REMARK   33  A    between atoms: _69  and  _70
REMARK   34  A    between atoms: _73  and  _75
REMARK   35  A    between atoms: _75  and  _76
REMARK   36  A    between atoms: _75  and  _78
REMARK   37  A    between atoms: _78  and  _79
REMARK   38  A    between atoms: _79  and  _80
REMARK   39  A    between atoms: _80  and  _81
REMARK   40  A    between atoms: _81  and  _82
REMARK   41  A    between atoms: _86  and  _88
REMARK   42  A    between atoms: _88  and  _89
REMARK   43  A    between atoms: _88  and  _91
REMARK   44  A    between atoms: _91  and  _92
REMARK   45  A    between atoms: _94  and  _96
REMARK   46  A    between atoms: _96  and  _97
REMARK   47  A    between atoms: _96  and  _99
REMARK   48  A    between atoms: _99  and  _100
REMARK   49  A    between atoms: _105  and  _106
REMARK   50  A    between atoms: _108  and  _110
REMARK   51  A    between atoms: _110  and  _111
REMARK   52  A    between atoms: _110  and  _113
REMARK   53  A    between atoms: _116  and  _118
REMARK   54  A    between atoms: _118  and  _119
REMARK   55  A    between atoms: _118  and  _121
REMARK   56  A    between atoms: _121  and  _122
REMARK   57  A    between atoms: _127  and  _128
REMARK   58  A    between atoms: _130  and  _132
REMARK   59  A    between atoms: _132  and  _133
REMARK   60  A    between atoms: _136  and  _138
REMARK   61  A    between atoms: _138  and  _139
REMARK   62  A    between atoms: _142  and  _144
REMARK   63  A    between atoms: _144  and  _145
REMARK   64  A    between atoms: _144  and  _147
REMARK   65  A    between atoms: _147  and  _148
REMARK   66  A    between atoms: _151  and  _153
REMARK   67  A    between atoms: _153  and  _154
REMARK   68  A    between atoms: _153  and  _156
REMARK   69  A    between atoms: _156  and  _157
REMARK   70  A    between atoms: _160  and  _162
REMARK   71  A    between atoms: _162  and  _163
REMARK   72  A    between atoms: _162  and  _165
REMARK   73  A    between atoms: _165  and  _166
REMARK   74  A    between atoms: _168  and  _170
REMARK   75  A    between atoms: _170  and  _171
REMARK   76  A    between atoms: _170  and  _173
REMARK   77  A    between atoms: _173  and  _174
REMARK   78  A    between atoms: _174  and  _293
REMARK   79  A    between atoms: _175  and  _177
REMARK   80  A    between atoms: _177  and  _178
REMARK   81  A    between atoms: _177  and  _180
REMARK   82  A    between atoms: _180  and  _181
REMARK   83  A    between atoms: _181  and  _182
REMARK   84  A    between atoms: _187  and  _189
REMARK   85  A    between atoms: _189  and  _190
REMARK   86  A    between atoms: _192  and  _194
REMARK   87  A    between atoms: _194  and  _195
REMARK   88  A    between atoms: _194  and  _197
REMARK   89  A    between atoms: _197  and  _198
REMARK   90  A    between atoms: _201  and  _203
REMARK   91  A    between atoms: _203  and  _204
REMARK   92  A    between atoms: _203  and  _206
REMARK   93  A    between atoms: _206  and  _207
REMARK   94  A    between atoms: _209  and  _211
REMARK   95  A    between atoms: _211  and  _212
REMARK   96  A    between atoms: _214  and  _216
REMARK   97  A    between atoms: _216  and  _217
REMARK   98  A    between atoms: _219  and  _221
REMARK   99  A    between atoms: _221  and  _222
REMARK  100  A    between atoms: _221  and  _224
REMARK  101  A    between atoms: _224  and  _225
REMARK  102  A    between atoms: _228  and  _230
REMARK  103  A    between atoms: _230  and  _231
REMARK  104  A    between atoms: _230  and  _233
REMARK  105  A    between atoms: _236  and  _238
REMARK  106  A    between atoms: _238  and  _239
REMARK  107  A    between atoms: _238  and  _241
REMARK  108  A    between atoms: _241  and  _242
REMARK  109  A    between atoms: _244  and  _246
REMARK  110  A    between atoms: _246  and  _247
REMARK  111  A    between atoms: _246  and  _249
REMARK  112  A    between atoms: _249  and  _250
REMARK  113  A    between atoms: _260  and  _262
REMARK  114  A    between atoms: _262  and  _263
REMARK  115  A    between atoms: _265  and  _267
REMARK  116  A    between atoms: _267  and  _268
REMARK  117  A    between atoms: _267  and  _270
REMARK  118  A    between atoms: _270  and  _271
REMARK  119  A    between atoms: _271  and  _272
REMARK  120  A    between atoms: _272  and  _273
REMARK  121  A    between atoms: _282  and  _284
REMARK  122  A    between atoms: _284  and  _285
REMARK  123  A    between atoms: _287  and  _289
REMARK  124  A    between atoms: _289  and  _290
REMARK  125  A    between atoms: _289  and  _292
REMARK  126  A    between atoms: _292  and  _293
REMARK  127  A    between atoms: _294  and  _296
REMARK  128  A    between atoms: _296  and  _297
REMARK  129  A    between atoms: _300  and  _302
REMARK  130  A    between atoms: _302  and  _303
REMARK  131  A    between atoms: _302  and  _305
REMARK  132  A    between atoms: _305  and  _306
REMARK  133  A    between atoms: _309  and  _311
REMARK  134  A    between atoms: _311  and  _312
REMARK  135  A    between atoms: _311  and  _314
REMARK  136  A    between atoms: _314  and  _315
REMARK  137  A    between atoms: _315  and  _316
REMARK  138  A    between atoms: _316  and  _317
REMARK  139  A    between atoms: _317  and  _318
REMARK  140  A    between atoms: _323  and  _324
REMARK  141  A    between atoms: _329  and  _331
REMARK  142  A    between atoms: _331  and  _332
REMARK  143  A    between atoms: _334  and  _336
REMARK  144  A    between atoms: _336  and  _337
REMARK  145  A    between atoms: _336  and  _339
REMARK  146  A    between atoms: _342  and  _344
REMARK  147  A    between atoms: _344  and  _345
REMARK  148  A    between atoms: _344  and  _347
REMARK  149  A    between atoms: _347  and  _348
REMARK  150  A    between atoms: _353  and  _354
REMARK                            x       y       z     vdW  Elec       q    Type
REMARK                         _______ _______ _______ _____ _____    ______ ____
ROOT
ATOM      1  O   HOH     1       9.616   8.439  25.077  0.00  0.00    +0.000 OA
ENDROOT
TORSDOF 0
REMARK  Name = ../refined-set-2016/1c5y/1c5y_pocket.pdb
REMARK  150 active torsions:
REMARK  status: ('A' for Active; 'I' for Inactive)
REMARK    1  A    between atoms: _1  and  _3
REMARK    2  A    between atoms: _3  and  _4
REMARK    3  A    between atoms: _3  and  _6
REMARK    4  A    between atoms: _6  and  _7
REMARK    5  A    between atoms: _10  and  _12
REMARK    6  A    between atoms: _12  and  _13
REMARK    7  A    between atoms: _12  and  _15
REMARK    8  A    between atoms: _15  and  _16
REMARK    9  A    between atoms: _16  and  _34
REMARK   10  A    between atoms: _17  and  _19
REMARK   11  A    between atoms: _19  and  _20
REMARK   12  A    between atoms: _19  and  _22
REMARK   13  A    between atoms: _22  and  _23
REMARK   14  A    between atoms: _28  and  _30
REMARK   15  A    between atoms: _30  and  _31
REMARK   16  A    between atoms: _30  and  _33
REMARK   17  A    between atoms: _33  and  _34
REMARK   18  A    between atoms: _35  and  _37
REMARK   19  A    between atoms: _37  and  _38
REMARK   20  A    between atoms: _37  and  _40
REMARK   21  A    between atoms: _40  and  _41
REMARK   22  A    between atoms: _44  and  _46
REMARK   23  A    between atoms: _46  and  _47
REMARK   24  A    between atoms: _46  and  _49
REMARK   25  A    between atoms: _49  and  _50
REMARK   26  A    between atoms: _55  and  _57
REMARK   27  A    between atoms: _57  and  _58
REMARK   28  A    between atoms: _57  and  _60
REMARK   29  A    between atoms: _60  and  _61
REMARK   30  A    between atoms: _64  and  _66
REMARK   31  A    between atoms: _66  and  _67
REMARK   32  A    between atoms: _66  and  _69
REMARK   33  A    between atoms: _69  and  _70
REMARK   34  A    between atoms: _73  and  _75
REMARK   35  A    between atoms: _75  and  _76
REMARK   36  A    between atoms: _75  and  _78
REMARK   37  A    between atoms: _78  and  _79
REMARK   38  A    between atoms: _79  and  _80
REMARK   39  A    between atoms: _80  and  _81
REMARK   40  A    between atoms: _81  and  _82
REMARK   41  A    between atoms: _86  and  _88
REMARK   42  A    between atoms: _88  and  _89
REMARK   43  A    between atoms: _88  and  _91
REMARK   44  A    between atoms: _91  and  _92
REMARK   45  A    between atoms: _94  and  _96
REMARK   46  A    between atoms: _96  and  _97
REMARK   47  A    between atoms: _96  and  _99
REMARK   48  A    between atoms: _99  and  _100
REMARK   49  A    between atoms: _105  and  _106
REMARK   50  A    between atoms: _108  and  _110
REMARK   51  A    between atoms: _110  and  _111
REMARK   52  A    between atoms: _110  and  _113
REMARK   53  A    between atoms: _116  and  _118
REMARK   54  A    between atoms: _118  and  _119
REMARK   55  A    between atoms: _118  and  _121
REMARK   56  A    between atoms: _121  and  _122
REMARK   57  A    between atoms: _127  and  _128
REMARK   58  A    between atoms: _130  and  _132
REMARK   59  A    between atoms: _132  and  _133
REMARK   60  A    between atoms: _136  and  _138
REMARK   61  A    between atoms: _138  and  _139
REMARK   62  A    between atoms: _142  and  _144
REMARK   63  A    between atoms: _144  and  _145
REMARK   64  A    between atoms: _144  and  _147
REMARK   65  A    between atoms: _147  and  _148
REMARK   66  A    between atoms: _151  and  _153
REMARK   67  A    between atoms: _153  and  _154
REMARK   68  A    between atoms: _153  and  _156
REMARK   69  A    between atoms: _156  and  _157
REMARK   70  A    between atoms: _160  and  _162
REMARK   71  A    between atoms: _162  and  _163
REMARK   72  A    between atoms: _162  and  _165
REMARK   73  A    between atoms: _165  and  _166
REMARK   74  A    between atoms: _168  and  _170
REMARK   75  A    between atoms: _170  and  _171
REMARK   76  A    between atoms: _170  and  _173
REMARK   77  A    between atoms: _173  and  _174
REMARK   78  A    between atoms: _174  and  _293
REMARK   79  A    between atoms: _175  and  _177
REMARK   80  A    between atoms: _177  and  _178
REMARK   81  A    between atoms: _177  and  _180
REMARK   82  A    between atoms: _180  and  _181
REMARK   83  A    between atoms: _181  and  _182
REMARK   84  A    between atoms: _187  and  _189
REMARK   85  A    between atoms: _189  and  _190
REMARK   86  A    between atoms: _192  and  _194
REMARK   87  A    between atoms: _194  and  _195
REMARK   88  A    between atoms: _194  and  _197
REMARK   89  A    between atoms: _197  and  _198
REMARK   90  A    between atoms: _201  and  _203
REMARK   91  A    between atoms: _203  and  _204
REMARK   92  A    between atoms: _203  and  _206
REMARK   93  A    between atoms: _206  and  _207
REMARK   94  A    between atoms: _209  and  _211
REMARK   95  A    between atoms: _211  and  _212
REMARK   96  A    between atoms: _214  and  _216
REMARK   97  A    between atoms: _216  and  _217
REMARK   98  A    between atoms: _219  and  _221
REMARK   99  A    between atoms: _221  and  _222
REMARK  100  A    between atoms: _221  and  _224
REMARK  101  A    between atoms: _224  and  _225
REMARK  102  A    between atoms: _228  and  _230
REMARK  103  A    between atoms: _230  and  _231
REMARK  104  A    between atoms: _230  and  _233
REMARK  105  A    between atoms: _236  and  _238
REMARK  106  A    between atoms: _238  and  _239
REMARK  107  A    between atoms: _238  and  _241
REMARK  108  A    between atoms: _241  and  _242
REMARK  109  A    between atoms: _244  and  _246
REMARK  110  A    between atoms: _246  and  _247
REMARK  111  A    between atoms: _246  and  _249
REMARK  112  A    between atoms: _249  and  _250
REMARK  113  A    between atoms: _260  and  _262
REMARK  114  A    between atoms: _262  and  _263
REMARK  115  A    between atoms: _265  and  _267
REMARK  116  A    between atoms: _267  and  _268
REMARK  117  A    between atoms: _267  and  _270
REMARK  118  A    between atoms: _270  and  _271
REMARK  119  A    between atoms: _271  and  _272
REMARK  120  A    between atoms: _272  and  _273
REMARK  121  A    between atoms: _282  and  _284
REMARK  122  A    between atoms: _284  and  _285
REMARK  123  A    between atoms: _287  and  _289
REMARK  124  A    between atoms: _289  and  _290
REMARK  125  A    between atoms: _289  and  _292
REMARK  126  A    between atoms: _292  and  _293
REMARK  127  A    between atoms: _294  and  _296
REMARK  128  A    between atoms: _296  and  _297
REMARK  129  A    between atoms: _300  and  _302
REMARK  130  A    between atoms: _302  and  _303
REMARK  131  A    between atoms: _302  and  _305
REMARK  132  A    between atoms: _305  and  _306
REMARK  133  A    between atoms: _309  and  _311
REMARK  134  A    between atoms: _311  and  _312
REMARK  135  A    between atoms: _311  and  _314
REMARK  136  A    between atoms: _314  and  _315
REMARK  137  A    between atoms: _315  and  _316
REMARK  138  A    between atoms: _316  and  _317
REMARK  139  A    between atoms: _317  and  _318
REMARK  140  A    between atoms: _323  and  _324
REMARK  141  A    between atoms: _329  and  _331
REMARK  142  A    between atoms: _331  and  _332
REMARK  143  A    between atoms: _334  and  _336
REMARK  144  A    between atoms: _336  and  _337
REMARK  145  A    between atoms: _336  and  _339
REMARK  146  A    between atoms: _342  and  _344
REMARK  147  A    between atoms: _344  and  _345
REMARK  148  A    between atoms: _344  and  _347
REMARK  149  A    between atoms: _347  and  _348
REMARK  150  A    between atoms: _353  and  _354
REMARK                            x       y       z     vdW  Elec       q    Type
REMARK                         _______ _______ _______ _____ _____    ______ ____
ROOT
ATOM      1  O   HOH     1       8.303   4.351  29.065  0.00  0.00    +0.000 OA
ENDROOT
TORSDOF 0
