REMARK  Name = ../refined-set-2016/4lkq/4lkq_pocket.pdb
REMARK  110 active torsions:
REMARK  status: ('A' for Active; 'I' for Inactive)
REMARK    1  A    between atoms: _1  and  _3
REMARK    2  A    between atoms: _3  and  _4
REMARK    3  A    between atoms: _3  and  _6
REMARK    4  A    between atoms: _6  and  _7
REMARK    5  A    between atoms: _12  and  _13
REMARK    6  A    between atoms: _15  and  _17
REMARK    7  A    between atoms: _17  and  _18
REMARK    8  A    between atoms: _17  and  _20
REMARK    9  A    between atoms: _20  and  _21
REMARK   10  A    between atoms: _26  and  _28
REMARK   11  A    between atoms: _28  and  _29
REMARK   12  A    between atoms: _28  and  _31
REMARK   13  A    between atoms: _31  and  _32
REMARK   14  A    between atoms: _37  and  _39
REMARK   15  A    between atoms: _39  and  _40
REMARK   16  A    between atoms: _39  and  _42
REMARK   17  A    between atoms: _42  and  _43
REMARK   18  A    between atoms: _46  and  _48
REMARK   19  A    between atoms: _48  and  _49
REMARK   20  A    between atoms: _48  and  _51
REMARK   21  A    between atoms: _51  and  _52
REMARK   22  A    between atoms: _55  and  _57
REMARK   23  A    between atoms: _57  and  _58
REMARK   24  A    between atoms: _57  and  _60
REMARK   25  A    between atoms: _60  and  _61
REMARK   26  A    between atoms: _64  and  _66
REMARK   27  A    between atoms: _66  and  _67
REMARK   28  A    between atoms: _66  and  _69
REMARK   29  A    between atoms: _71  and  _73
REMARK   30  A    between atoms: _73  and  _74
REMARK   31  A    between atoms: _73  and  _76
REMARK   32  A    between atoms: _76  and  _77
REMARK   33  A    between atoms: _79  and  _81
REMARK   34  A    between atoms: _81  and  _82
REMARK   35  A    between atoms: _81  and  _84
REMARK   36  A    between atoms: _87  and  _89
REMARK   37  A    between atoms: _89  and  _90
REMARK   38  A    between atoms: _89  and  _92
REMARK   39  A    between atoms: _92  and  _93
REMARK   40  A    between atoms: _96  and  _98
REMARK   41  A    between atoms: _98  and  _99
REMARK   42  A    between atoms: _98  and  _101
REMARK   43  A    between atoms: _101  and  _102
REMARK   44  A    between atoms: _105  and  _107
REMARK   45  A    between atoms: _107  and  _108
REMARK   46  A    between atoms: _107  and  _110
REMARK   47  A    between atoms: _110  and  _111
REMARK   48  A    between atoms: _114  and  _116
REMARK   49  A    between atoms: _116  and  _117
REMARK   50  A    between atoms: _120  and  _122
REMARK   51  A    between atoms: _122  and  _123
REMARK   52  A    between atoms: _122  and  _125
REMARK   53  A    between atoms: _125  and  _126
REMARK   54  A    between atoms: _129  and  _131
REMARK   55  A    between atoms: _131  and  _132
REMARK   56  A    between atoms: _131  and  _134
REMARK   57  A    between atoms: _134  and  _135
REMARK   58  A    between atoms: _140  and  _141
REMARK   59  A    between atoms: _143  and  _145
REMARK   60  A    between atoms: _145  and  _146
REMARK   61  A    between atoms: _145  and  _148
REMARK   62  A    between atoms: _148  and  _149
REMARK   63  A    between atoms: _155  and  _157
REMARK   64  A    between atoms: _157  and  _158
REMARK   65  A    between atoms: _157  and  _160
REMARK   66  A    between atoms: _160  and  _161
REMARK   67  A    between atoms: _164  and  _166
REMARK   68  A    between atoms: _166  and  _167
REMARK   69  A    between atoms: _166  and  _169
REMARK   70  A    between atoms: _169  and  _170
REMARK   71  A    between atoms: _170  and  _171
REMARK   72  A    between atoms: _173  and  _175
REMARK   73  A    between atoms: _175  and  _176
REMARK   74  A    between atoms: _175  and  _178
REMARK   75  A    between atoms: _178  and  _179
REMARK   76  A    between atoms: _179  and  _180
REMARK   77  A    between atoms: _182  and  _184
REMARK   78  A    between atoms: _184  and  _185
REMARK   79  A    between atoms: _184  and  _187
REMARK   80  A    between atoms: _190  and  _192
REMARK   81  A    between atoms: _192  and  _193
REMARK   82  A    between atoms: _195  and  _197
REMARK   83  A    between atoms: _197  and  _198
REMARK   84  A    between atoms: _197  and  _200
REMARK   85  A    between atoms: _200  and  _201
REMARK   86  A    between atoms: _201  and  _202
REMARK   87  A    between atoms: _207  and  _209
REMARK   88  A    between atoms: _209  and  _210
REMARK   89  A    between atoms: _209  and  _212
REMARK   90  A    between atoms: _212  and  _213
REMARK   91  A    between atoms: _216  and  _218
REMARK   92  A    between atoms: _218  and  _219
REMARK   93  A    between atoms: _221  and  _223
REMARK   94  A    between atoms: _223  and  _224
REMARK   95  A    between atoms: _223  and  _226
REMARK   96  A    between atoms: _226  and  _227
REMARK   97  A    between atoms: _233  and  _235
REMARK   98  A    between atoms: _235  and  _236
REMARK   99  A    between atoms: _235  and  _238
REMARK  100  A    between atoms: _238  and  _239
REMARK  101  A    between atoms: _244  and  _245
REMARK  102  A    between atoms: _247  and  _249
REMARK  103  A    between atoms: _249  and  _250
REMARK  104  A    between atoms: _249  and  _252
REMARK  105  A    between atoms: _255  and  _257
REMARK  106  A    between atoms: _257  and  _258
REMARK  107  A    between atoms: _261  and  _263
REMARK  108  A    between atoms: _263  and  _264
REMARK  109  A    between atoms: _263  and  _266
REMARK  110  A    between atoms: _266  and  _267
REMARK                            x       y       z     vdW  Elec       q    Type
REMARK                         _______ _______ _______ _____ _____    ______ ____
ROOT
ATOM      1  C   TYR A   1      13.780  12.605  48.120  0.00  0.00    +0.239 C 
ATOM      2  O   TYR A   1      13.357  12.290  49.231  0.00  0.00    -0.274 OA
ATOM      3  N   HIS A   2      14.328  11.714  47.281  0.00  0.00    -0.298 N 
ATOM      4  H   HIS A   2      14.740  12.035  46.382  0.00  0.00    +0.150 HD
ENDROOT
BRANCH   1   5
ATOM      5  CA  TYR A   1      13.654  14.053  47.645  0.00  0.00    +0.149 C 
BRANCH   5   6
ATOM      6  N   TYR A   1      14.867  14.641  47.052  0.00  0.00    -0.238 NA
ATOM      7  H   TYR A   1      15.345  14.160  46.263  0.00  0.00    +0.142 HD
ENDBRANCH   5   6
BRANCH   5   8
ATOM      8  CB  TYR A   1      12.505  14.170  46.673  0.00  0.00    +0.053 C 
BRANCH   8   9
ATOM      9  CG  TYR A   1      11.247  13.544  47.228  0.00  0.00    -0.020 A 
ATOM     10  CD2 TYR A   1      10.561  14.155  48.262  0.00  0.00    -0.001 A 
ATOM     11  CE2 TYR A   1       9.419  13.579  48.803  0.00  0.00    +0.036 A 
ATOM     12  CZ  TYR A   1       8.937  12.400  48.291  0.00  0.00    +0.134 A 
ATOM     13  CE1 TYR A   1       9.612  11.743  47.272  0.00  0.00    +0.036 A 
ATOM     14  CD1 TYR A   1      10.778  12.328  46.743  0.00  0.00    -0.001 A 
BRANCH  12  15
ATOM     15  OH  TYR A   1       7.770  11.851  48.811  0.00  0.00    -0.506 OA
ATOM     16  HH  TYR A   1       7.418  12.441  49.524  0.00  0.00    +0.292 HD
ENDBRANCH  12  15
ENDBRANCH   8   9
ENDBRANCH   5   8
ENDBRANCH   1   5
BRANCH   3  17
ATOM     17  CA  HIS A   2      14.350  10.270  47.630  0.00  0.00    +0.143 C 
BRANCH  17  18
ATOM     18  C   HIS A   2      15.560   9.988  48.497  0.00  0.00    +0.227 C 
ATOM     19  O   HIS A   2      16.465   9.281  48.078  0.00  0.00    -0.286 OA
ENDBRANCH  17  18
BRANCH  17  20
ATOM     20  CB  HIS A   2      14.366   9.418  46.377  0.00  0.00    +0.075 C 
BRANCH  20  21
ATOM     21  CG  HIS A   2      13.057   9.408  45.647  0.00  0.00    +0.082 A 
ATOM     22  CD2 HIS A   2      11.915   8.704  45.853  0.00  0.00    +0.115 A 
ATOM     23  NE2 HIS A   2      10.998   9.126  44.913  0.00  0.00    -0.221 NA
ATOM     24  CE1 HIS A   2      11.566  10.035  44.145  0.00  0.00    +0.199 A 
ATOM     25  ND1 HIS A   2      12.799  10.249  44.591  0.00  0.00    -0.227 NA
ENDBRANCH  20  21
ENDBRANCH  17  20
ENDBRANCH   3  17
TORSDOF 9
REMARK  Name = ../refined-set-2016/4lkq/4lkq_pocket.pdb
REMARK  110 active torsions:
REMARK  status: ('A' for Active; 'I' for Inactive)
REMARK    1  A    between atoms: _1  and  _3
REMARK    2  A    between atoms: _3  and  _4
REMARK    3  A    between atoms: _3  and  _6
REMARK    4  A    between atoms: _6  and  _7
REMARK    5  A    between atoms: _12  and  _13
REMARK    6  A    between atoms: _15  and  _17
REMARK    7  A    between atoms: _17  and  _18
REMARK    8  A    between atoms: _17  and  _20
REMARK    9  A    between atoms: _20  and  _21
REMARK   10  A    between atoms: _26  and  _28
REMARK   11  A    between atoms: _28  and  _29
REMARK   12  A    between atoms: _28  and  _31
REMARK   13  A    between atoms: _31  and  _32
REMARK   14  A    between atoms: _37  and  _39
REMARK   15  A    between atoms: _39  and  _40
REMARK   16  A    between atoms: _39  and  _42
REMARK   17  A    between atoms: _42  and  _43
REMARK   18  A    between atoms: _46  and  _48
REMARK   19  A    between atoms: _48  and  _49
REMARK   20  A    between atoms: _48  and  _51
REMARK   21  A    between atoms: _51  and  _52
REMARK   22  A    between atoms: _55  and  _57
REMARK   23  A    between atoms: _57  and  _58
REMARK   24  A    between atoms: _57  and  _60
REMARK   25  A    between atoms: _60  and  _61
REMARK   26  A    between atoms: _64  and  _66
REMARK   27  A    between atoms: _66  and  _67
REMARK   28  A    between atoms: _66  and  _69
REMARK   29  A    between atoms: _71  and  _73
REMARK   30  A    between atoms: _73  and  _74
REMARK   31  A    between atoms: _73  and  _76
REMARK   32  A    between atoms: _76  and  _77
REMARK   33  A    between atoms: _79  and  _81
REMARK   34  A    between atoms: _81  and  _82
REMARK   35  A    between atoms: _81  and  _84
REMARK   36  A    between atoms: _87  and  _89
REMARK   37  A    between atoms: _89  and  _90
REMARK   38  A    between atoms: _89  and  _92
REMARK   39  A    between atoms: _92  and  _93
REMARK   40  A    between atoms: _96  and  _98
REMARK   41  A    between atoms: _98  and  _99
REMARK   42  A    between atoms: _98  and  _101
REMARK   43  A    between atoms: _101  and  _102
REMARK   44  A    between atoms: _105  and  _107
REMARK   45  A    between atoms: _107  and  _108
REMARK   46  A    between atoms: _107  and  _110
REMARK   47  A    between atoms: _110  and  _111
REMARK   48  A    between atoms: _114  and  _116
REMARK   49  A    between atoms: _116  and  _117
REMARK   50  A    between atoms: _120  and  _122
REMARK   51  A    between atoms: _122  and  _123
REMARK   52  A    between atoms: _122  and  _125
REMARK   53  A    between atoms: _125  and  _126
REMARK   54  A    between atoms: _129  and  _131
REMARK   55  A    between atoms: _131  and  _132
REMARK   56  A    between atoms: _131  and  _134
REMARK   57  A    between atoms: _134  and  _135
REMARK   58  A    between atoms: _140  and  _141
REMARK   59  A    between atoms: _143  and  _145
REMARK   60  A    between atoms: _145  and  _146
REMARK   61  A    between atoms: _145  and  _148
REMARK   62  A    between atoms: _148  and  _149
REMARK   63  A    between atoms: _155  and  _157
REMARK   64  A    between atoms: _157  and  _158
REMARK   65  A    between atoms: _157  and  _160
REMARK   66  A    between atoms: _160  and  _161
REMARK   67  A    between atoms: _164  and  _166
REMARK   68  A    between atoms: _166  and  _167
REMARK   69  A    between atoms: _166  and  _169
REMARK   70  A    between atoms: _169  and  _170
REMARK   71  A    between atoms: _170  and  _171
REMARK   72  A    between atoms: _173  and  _175
REMARK   73  A    between atoms: _175  and  _176
REMARK   74  A    between atoms: _175  and  _178
REMARK   75  A    between atoms: _178  and  _179
REMARK   76  A    between atoms: _179  and  _180
REMARK   77  A    between atoms: _182  and  _184
REMARK   78  A    between atoms: _184  and  _185
REMARK   79  A    between atoms: _184  and  _187
REMARK   80  A    between atoms: _190  and  _192
REMARK   81  A    between atoms: _192  and  _193
REMARK   82  A    between atoms: _195  and  _197
REMARK   83  A    between atoms: _197  and  _198
REMARK   84  A    between atoms: _197  and  _200
REMARK   85  A    between atoms: _200  and  _201
REMARK   86  A    between atoms: _201  and  _202
REMARK   87  A    between atoms: _207  and  _209
REMARK   88  A    between atoms: _209  and  _210
REMARK   89  A    between atoms: _209  and  _212
REMARK   90  A    between atoms: _212  and  _213
REMARK   91  A    between atoms: _216  and  _218
REMARK   92  A    between atoms: _218  and  _219
REMARK   93  A    between atoms: _221  and  _223
REMARK   94  A    between atoms: _223  and  _224
REMARK   95  A    between atoms: _223  and  _226
REMARK   96  A    between atoms: _226  and  _227
REMARK   97  A    between atoms: _233  and  _235
REMARK   98  A    between atoms: _235  and  _236
REMARK   99  A    between atoms: _235  and  _238
REMARK  100  A    between atoms: _238  and  _239
REMARK  101  A    between atoms: _244  and  _245
REMARK  102  A    between atoms: _247  and  _249
REMARK  103  A    between atoms: _249  and  _250
REMARK  104  A    between atoms: _249  and  _252
REMARK  105  A    between atoms: _255  and  _257
REMARK  106  A    between atoms: _257  and  _258
REMARK  107  A    between atoms: _261  and  _263
REMARK  108  A    between atoms: _263  and  _264
REMARK  109  A    between atoms: _263  and  _266
REMARK  110  A    between atoms: _266  and  _267
REMARK                            x       y       z     vdW  Elec       q    Type
REMARK                         _______ _______ _______ _____ _____    ______ ____
ROOT
ATOM      1  CB  HIS A   1      12.057  10.494  51.495  0.00  0.00    +0.072 C 
ENDROOT
BRANCH   1   2
ATOM      2  CG  HIS A   1      11.042   9.609  50.849  0.00  0.00    +0.082 A 
ATOM      3  ND1 HIS A   1       9.698   9.927  50.829  0.00  0.00    -0.227 NA
ATOM      4  CE1 HIS A   1       9.036   8.989  50.177  0.00  0.00    +0.199 A 
ATOM      5  NE2 HIS A   1       9.900   8.070  49.760  0.00  0.00    -0.221 NA
ATOM      6  CD2 HIS A   1      11.167   8.433  50.185  0.00  0.00    +0.115 A 
ENDBRANCH   1   2
BRANCH   1   7
ATOM      7  CA  HIS A   1      11.884  10.625  52.996  0.00  0.00    +0.139 C 
BRANCH   7   8
ATOM      8  N   HIS A   1      13.053  11.324  53.569  0.00  0.00    -0.239 NA
ATOM      9  H   HIS A   1      13.844  11.597  52.952  0.00  0.00    +0.142 HD
ENDBRANCH   7   8
BRANCH   7  10
ATOM     10  C   HIS A   1      11.725   9.229  53.645  0.00  0.00    +0.224 C 
ATOM     11  O   HIS A   1      10.632   8.845  54.082  0.00  0.00    -0.287 OA
ENDBRANCH   7  10
ENDBRANCH   1   7
TORSDOF 4
REMARK  Name = ../refined-set-2016/4lkq/4lkq_pocket.pdb
REMARK  110 active torsions:
REMARK  status: ('A' for Active; 'I' for Inactive)
REMARK    1  A    between atoms: _1  and  _3
REMARK    2  A    between atoms: _3  and  _4
REMARK    3  A    between atoms: _3  and  _6
REMARK    4  A    between atoms: _6  and  _7
REMARK    5  A    between atoms: _12  and  _13
REMARK    6  A    between atoms: _15  and  _17
REMARK    7  A    between atoms: _17  and  _18
REMARK    8  A    between atoms: _17  and  _20
REMARK    9  A    between atoms: _20  and  _21
REMARK   10  A    between atoms: _26  and  _28
REMARK   11  A    between atoms: _28  and  _29
REMARK   12  A    between atoms: _28  and  _31
REMARK   13  A    between atoms: _31  and  _32
REMARK   14  A    between atoms: _37  and  _39
REMARK   15  A    between atoms: _39  and  _40
REMARK   16  A    between atoms: _39  and  _42
REMARK   17  A    between atoms: _42  and  _43
REMARK   18  A    between atoms: _46  and  _48
REMARK   19  A    between atoms: _48  and  _49
REMARK   20  A    between atoms: _48  and  _51
REMARK   21  A    between atoms: _51  and  _52
REMARK   22  A    between atoms: _55  and  _57
REMARK   23  A    between atoms: _57  and  _58
REMARK   24  A    between atoms: _57  and  _60
REMARK   25  A    between atoms: _60  and  _61
REMARK   26  A    between atoms: _64  and  _66
REMARK   27  A    between atoms: _66  and  _67
REMARK   28  A    between atoms: _66  and  _69
REMARK   29  A    between atoms: _71  and  _73
REMARK   30  A    between atoms: _73  and  _74
REMARK   31  A    between atoms: _73  and  _76
REMARK   32  A    between atoms: _76  and  _77
REMARK   33  A    between atoms: _79  and  _81
REMARK   34  A    between atoms: _81  and  _82
REMARK   35  A    between atoms: _81  and  _84
REMARK   36  A    between atoms: _87  and  _89
REMARK   37  A    between atoms: _89  and  _90
REMARK   38  A    between atoms: _89  and  _92
REMARK   39  A    between atoms: _92  and  _93
REMARK   40  A    between atoms: _96  and  _98
REMARK   41  A    between atoms: _98  and  _99
REMARK   42  A    between atoms: _98  and  _101
REMARK   43  A    between atoms: _101  and  _102
REMARK   44  A    between atoms: _105  and  _107
REMARK   45  A    between atoms: _107  and  _108
REMARK   46  A    between atoms: _107  and  _110
REMARK   47  A    between atoms: _110  and  _111
REMARK   48  A    between atoms: _114  and  _116
REMARK   49  A    between atoms: _116  and  _117
REMARK   50  A    between atoms: _120  and  _122
REMARK   51  A    between atoms: _122  and  _123
REMARK   52  A    between atoms: _122  and  _125
REMARK   53  A    between atoms: _125  and  _126
REMARK   54  A    between atoms: _129  and  _131
REMARK   55  A    between atoms: _131  and  _132
REMARK   56  A    between atoms: _131  and  _134
REMARK   57  A    between atoms: _134  and  _135
REMARK   58  A    between atoms: _140  and  _141
REMARK   59  A    between atoms: _143  and  _145
REMARK   60  A    between atoms: _145  and  _146
REMARK   61  A    between atoms: _145  and  _148
REMARK   62  A    between atoms: _148  and  _149
REMARK   63  A    between atoms: _155  and  _157
REMARK   64  A    between atoms: _157  and  _158
REMARK   65  A    between atoms: _157  and  _160
REMARK   66  A    between atoms: _160  and  _161
REMARK   67  A    between atoms: _164  and  _166
REMARK   68  A    between atoms: _166  and  _167
REMARK   69  A    between atoms: _166  and  _169
REMARK   70  A    between atoms: _169  and  _170
REMARK   71  A    between atoms: _170  and  _171
REMARK   72  A    between atoms: _173  and  _175
REMARK   73  A    between atoms: _175  and  _176
REMARK   74  A    between atoms: _175  and  _178
REMARK   75  A    between atoms: _178  and  _179
REMARK   76  A    between atoms: _179  and  _180
REMARK   77  A    between atoms: _182  and  _184
REMARK   78  A    between atoms: _184  and  _185
REMARK   79  A    between atoms: _184  and  _187
REMARK   80  A    between atoms: _190  and  _192
REMARK   81  A    between atoms: _192  and  _193
REMARK   82  A    between atoms: _195  and  _197
REMARK   83  A    between atoms: _197  and  _198
REMARK   84  A    between atoms: _197  and  _200
REMARK   85  A    between atoms: _200  and  _201
REMARK   86  A    between atoms: _201  and  _202
REMARK   87  A    between atoms: _207  and  _209
REMARK   88  A    between atoms: _209  and  _210
REMARK   89  A    between atoms: _209  and  _212
REMARK   90  A    between atoms: _212  and  _213
REMARK   91  A    between atoms: _216  and  _218
REMARK   92  A    between atoms: _218  and  _219
REMARK   93  A    between atoms: _221  and  _223
REMARK   94  A    between atoms: _223  and  _224
REMARK   95  A    between atoms: _223  and  _226
REMARK   96  A    between atoms: _226  and  _227
REMARK   97  A    between atoms: _233  and  _235
REMARK   98  A    between atoms: _235  and  _236
REMARK   99  A    between atoms: _235  and  _238
REMARK  100  A    between atoms: _238  and  _239
REMARK  101  A    between atoms: _244  and  _245
REMARK  102  A    between atoms: _247  and  _249
REMARK  103  A    between atoms: _249  and  _250
REMARK  104  A    between atoms: _249  and  _252
REMARK  105  A    between atoms: _255  and  _257
REMARK  106  A    between atoms: _257  and  _258
REMARK  107  A    between atoms: _261  and  _263
REMARK  108  A    between atoms: _263  and  _264
REMARK  109  A    between atoms: _263  and  _266
REMARK  110  A    between atoms: _266  and  _267
REMARK                            x       y       z     vdW  Elec       q    Type
REMARK                         _______ _______ _______ _____ _____    ______ ____
ROOT
ATOM      1  CA  LEU A   1       3.336   3.252  41.609  0.00  0.00    +0.133 C 
ENDROOT
BRANCH   1   2
ATOM      2  N   LEU A   1       4.699   2.713  41.895  0.00  0.00    -0.239 NA
ATOM      3  H   LEU A   1       5.531   3.338  41.898  0.00  0.00    +0.142 HD
ENDBRANCH   1   2
BRANCH   1   4
ATOM      4  C   LEU A   1       2.657   2.610  40.397  0.00  0.00    +0.224 C 
ATOM      5  O   LEU A   1       1.416   2.610  40.323  0.00  0.00    -0.287 OA
ENDBRANCH   1   4
BRANCH   1   6
ATOM      6  CB  LEU A   1       3.306   4.778  41.491  0.00  0.00    +0.025 C 
BRANCH   6   7
ATOM      7  CG  LEU A   1       3.440   5.562  42.802  0.00  0.00    +0.002 C 
ATOM      8  CD2 LEU A   1       2.189   5.329  43.705  0.00  0.00    +0.000 C 
ATOM      9  CD1 LEU A   1       3.587   7.035  42.451  0.00  0.00    +0.000 C 
ENDBRANCH   6   7
ENDBRANCH   1   6
TORSDOF 4
REMARK  Name = ../refined-set-2016/4lkq/4lkq_pocket.pdb
REMARK  110 active torsions:
REMARK  status: ('A' for Active; 'I' for Inactive)
REMARK    1  A    between atoms: _1  and  _3
REMARK    2  A    between atoms: _3  and  _4
REMARK    3  A    between atoms: _3  and  _6
REMARK    4  A    between atoms: _6  and  _7
REMARK    5  A    between atoms: _12  and  _13
REMARK    6  A    between atoms: _15  and  _17
REMARK    7  A    between atoms: _17  and  _18
REMARK    8  A    between atoms: _17  and  _20
REMARK    9  A    between atoms: _20  and  _21
REMARK   10  A    between atoms: _26  and  _28
REMARK   11  A    between atoms: _28  and  _29
REMARK   12  A    between atoms: _28  and  _31
REMARK   13  A    between atoms: _31  and  _32
REMARK   14  A    between atoms: _37  and  _39
REMARK   15  A    between atoms: _39  and  _40
REMARK   16  A    between atoms: _39  and  _42
REMARK   17  A    between atoms: _42  and  _43
REMARK   18  A    between atoms: _46  and  _48
REMARK   19  A    between atoms: _48  and  _49
REMARK   20  A    between atoms: _48  and  _51
REMARK   21  A    between atoms: _51  and  _52
REMARK   22  A    between atoms: _55  and  _57
REMARK   23  A    between atoms: _57  and  _58
REMARK   24  A    between atoms: _57  and  _60
REMARK   25  A    between atoms: _60  and  _61
REMARK   26  A    between atoms: _64  and  _66
REMARK   27  A    between atoms: _66  and  _67
REMARK   28  A    between atoms: _66  and  _69
REMARK   29  A    between atoms: _71  and  _73
REMARK   30  A    between atoms: _73  and  _74
REMARK   31  A    between atoms: _73  and  _76
REMARK   32  A    between atoms: _76  and  _77
REMARK   33  A    between atoms: _79  and  _81
REMARK   34  A    between atoms: _81  and  _82
REMARK   35  A    between atoms: _81  and  _84
REMARK   36  A    between atoms: _87  and  _89
REMARK   37  A    between atoms: _89  and  _90
REMARK   38  A    between atoms: _89  and  _92
REMARK   39  A    between atoms: _92  and  _93
REMARK   40  A    between atoms: _96  and  _98
REMARK   41  A    between atoms: _98  and  _99
REMARK   42  A    between atoms: _98  and  _101
REMARK   43  A    between atoms: _101  and  _102
REMARK   44  A    between atoms: _105  and  _107
REMARK   45  A    between atoms: _107  and  _108
REMARK   46  A    between atoms: _107  and  _110
REMARK   47  A    between atoms: _110  and  _111
REMARK   48  A    between atoms: _114  and  _116
REMARK   49  A    between atoms: _116  and  _117
REMARK   50  A    between atoms: _120  and  _122
REMARK   51  A    between atoms: _122  and  _123
REMARK   52  A    between atoms: _122  and  _125
REMARK   53  A    between atoms: _125  and  _126
REMARK   54  A    between atoms: _129  and  _131
REMARK   55  A    between atoms: _131  and  _132
REMARK   56  A    between atoms: _131  and  _134
REMARK   57  A    between atoms: _134  and  _135
REMARK   58  A    between atoms: _140  and  _141
REMARK   59  A    between atoms: _143  and  _145
REMARK   60  A    between atoms: _145  and  _146
REMARK   61  A    between atoms: _145  and  _148
REMARK   62  A    between atoms: _148  and  _149
REMARK   63  A    between atoms: _155  and  _157
REMARK   64  A    between atoms: _157  and  _158
REMARK   65  A    between atoms: _157  and  _160
REMARK   66  A    between atoms: _160  and  _161
REMARK   67  A    between atoms: _164  and  _166
REMARK   68  A    between atoms: _166  and  _167
REMARK   69  A    between atoms: _166  and  _169
REMARK   70  A    between atoms: _169  and  _170
REMARK   71  A    between atoms: _170  and  _171
REMARK   72  A    between atoms: _173  and  _175
REMARK   73  A    between atoms: _175  and  _176
REMARK   74  A    between atoms: _175  and  _178
REMARK   75  A    between atoms: _178  and  _179
REMARK   76  A    between atoms: _179  and  _180
REMARK   77  A    between atoms: _182  and  _184
REMARK   78  A    between atoms: _184  and  _185
REMARK   79  A    between atoms: _184  and  _187
REMARK   80  A    between atoms: _190  and  _192
REMARK   81  A    between atoms: _192  and  _193
REMARK   82  A    between atoms: _195  and  _197
REMARK   83  A    between atoms: _197  and  _198
REMARK   84  A    between atoms: _197  and  _200
REMARK   85  A    between atoms: _200  and  _201
REMARK   86  A    between atoms: _201  and  _202
REMARK   87  A    between atoms: _207  and  _209
REMARK   88  A    between atoms: _209  and  _210
REMARK   89  A    between atoms: _209  and  _212
REMARK   90  A    between atoms: _212  and  _213
REMARK   91  A    between atoms: _216  and  _218
REMARK   92  A    between atoms: _218  and  _219
REMARK   93  A    between atoms: _221  and  _223
REMARK   94  A    between atoms: _223  and  _224
REMARK   95  A    between atoms: _223  and  _226
REMARK   96  A    between atoms: _226  and  _227
REMARK   97  A    between atoms: _233  and  _235
REMARK   98  A    between atoms: _235  and  _236
REMARK   99  A    between atoms: _235  and  _238
REMARK  100  A    between atoms: _238  and  _239
REMARK  101  A    between atoms: _244  and  _245
REMARK  102  A    between atoms: _247  and  _249
REMARK  103  A    between atoms: _249  and  _250
REMARK  104  A    between atoms: _249  and  _252
REMARK  105  A    between atoms: _255  and  _257
REMARK  106  A    between atoms: _257  and  _258
REMARK  107  A    between atoms: _261  and  _263
REMARK  108  A    between atoms: _263  and  _264
REMARK  109  A    between atoms: _263  and  _266
REMARK  110  A    between atoms: _266  and  _267
REMARK                            x       y       z     vdW  Elec       q    Type
REMARK                         _______ _______ _______ _____ _____    ______ ____
ROOT
ATOM      1  C   CYS A   3       2.613  12.146  53.134  0.00  0.00    +0.242 C 
ATOM      2  O   CYS A   3       1.964  12.864  53.891  0.00  0.00    -0.273 OA
ATOM      3  N   SER A   4       3.607  12.646  52.393  0.00  0.00    -0.295 N 
ATOM      4  H   SER A   4       4.255  12.024  51.868  0.00  0.00    +0.150 HD
ENDROOT
BRANCH   3   5
ATOM      5  CA  SER A   4       3.749  14.101  52.348  0.00  0.00    +0.178 C 
BRANCH   5   6
ATOM      6  C   SER A   4       2.465  14.843  51.983  0.00  0.00    +0.243 C 
ATOM      7  O   SER A   4       2.282  15.984  52.411  0.00  0.00    -0.273 OA
ATOM      8  N   VAL A   5       1.596  14.199  51.203  0.00  0.00    -0.297 N 
ATOM      9  H   VAL A   5       1.830  13.255  50.836  0.00  0.00    +0.150 HD
BRANCH   8  10
ATOM     10  CA  VAL A   5       0.311  14.818  50.861  0.00  0.00    +0.149 C 
BRANCH  10  11
ATOM     11  C   VAL A   5      -0.704  14.818  51.977  0.00  0.00    +0.241 C 
ATOM     12  N   THR A   6      -0.348  14.253  53.129  0.00  0.00    -0.296 N 
ATOM     13  H   THR A   6       0.606  13.849  53.220  0.00  0.00    +0.150 HD
ATOM     14  O   VAL A   5      -1.814  15.337  51.779  0.00  0.00    -0.273 OA
BRANCH  12  15
ATOM     15  CA  THR A   6      -1.275  14.183  54.289  0.00  0.00    +0.164 C 
BRANCH  15  16
ATOM     16  C   THR A   6      -0.796  15.092  55.463  0.00  0.00    +0.229 C 
ATOM     17  O   THR A   6      -1.311  15.025  56.590  0.00  0.00    -0.286 OA
ENDBRANCH  15  16
BRANCH  15  18
ATOM     18  CB  THR A   6      -1.409  12.735  54.769  0.00  0.00    +0.136 C 
ATOM     19  CG2 THR A   6      -1.811  11.818  53.609  0.00  0.00    +0.034 C 
BRANCH  18  20
ATOM     20  OG1 THR A   6      -0.153  12.284  55.322  0.00  0.00    -0.382 OA
ATOM     21  HG1 THR A   6       0.550  12.335  54.627  0.00  0.00    +0.210 HD
ENDBRANCH  18  20
ENDBRANCH  15  18
ENDBRANCH  12  15
ENDBRANCH  10  11
BRANCH  10  22
ATOM     22  CB  VAL A   5      -0.344  14.255  49.560  0.00  0.00    +0.027 C 
ATOM     23  CG2 VAL A   5      -0.999  12.865  49.831  0.00  0.00    +0.002 C 
ATOM     24  CG1 VAL A   5       0.702  14.256  48.424  0.00  0.00    +0.002 C 
ENDBRANCH  10  22
ENDBRANCH   8  10
ENDBRANCH   5   6
BRANCH   5  25
ATOM     25  CB  SER A   4       4.878  14.495  51.377  0.00  0.00    +0.166 C 
BRANCH  25  26
ATOM     26  OG  SER A   4       4.437  14.389  50.022  0.00  0.00    -0.380 OA
ATOM     27  H   SER A   4       3.665  14.993  49.879  0.00  0.00    +0.211 HD
ENDBRANCH  25  26
ENDBRANCH   5  25
ENDBRANCH   3   5
BRANCH   1  28
ATOM     28  CA  CYS A   3       2.246  10.651  53.011  0.00  0.00    +0.160 C 
BRANCH  28  30
ATOM     29  C   LEU A   2       2.495  10.288  50.616  0.00  0.00    +0.241 C 
ATOM     30  N   CYS A   3       2.833   9.952  51.868  0.00  0.00    -0.296 N 
ATOM     31  H   CYS A   3       3.519   9.187  52.029  0.00  0.00    +0.150 HD
ATOM     32  O   LEU A   2       1.896  11.331  50.339  0.00  0.00    -0.273 OA
BRANCH  29  33
ATOM     33  CA  LEU A   2       2.877   9.337  49.482  0.00  0.00    +0.149 C 
BRANCH  33  36
ATOM     34  C   ASP A   1       4.707   7.908  50.092  0.00  0.00    +0.239 C 
ATOM     35  O   ASP A   1       5.490   8.843  49.943  0.00  0.00    -0.274 OA
ATOM     36  N   LEU A   2       3.396   8.081  49.931  0.00  0.00    -0.297 N 
ATOM     37  H   LEU A   2       2.744   7.297  50.133  0.00  0.00    +0.150 HD
BRANCH  34  38
ATOM     38  CA  ASP A   1       5.177   6.511  50.497  0.00  0.00    +0.156 C 
BRANCH  38  39
ATOM     39  N   ASP A   1       4.223   5.918  51.477  0.00  0.00    -0.238 NA
ATOM     40  H   ASP A   1       3.704   5.053  51.225  0.00  0.00    +0.142 HD
ENDBRANCH  38  39
BRANCH  38  41
ATOM     41  CB  ASP A   1       5.255   5.611  49.248  0.00  0.00    +0.140 C 
BRANCH  41  42
ATOM     42  CG  ASP A   1       6.499   5.864  48.405  0.00  0.00    +0.367 C 
ATOM     43  OD2 ASP A   1       7.448   6.481  48.941  0.00  0.00    -0.246 OA
ATOM     44  OD1 ASP A   1       6.508   5.440  47.232  0.00  0.00    -0.246 OA
ENDBRANCH  41  42
ENDBRANCH  38  41
ENDBRANCH  34  38
ENDBRANCH  33  36
BRANCH  33  45
ATOM     45  CB  LEU A   2       1.611   9.095  48.619  0.00  0.00    +0.029 C 
BRANCH  45  46
ATOM     46  CG  LEU A   2       1.795   8.227  47.369  0.00  0.00    +0.002 C 
ATOM     47  CD2 LEU A   2       0.461   8.179  46.626  0.00  0.00    +0.000 C 
ATOM     48  CD1 LEU A   2       2.942   8.776  46.513  0.00  0.00    +0.000 C 
ENDBRANCH  45  46
ENDBRANCH  33  45
ENDBRANCH  29  33
ENDBRANCH  28  30
BRANCH  28  49
ATOM     49  CB  CYS A   3       2.479   9.900  54.314  0.00  0.00    +0.098 C 
ATOM     50  SG  CYS A   3       4.083  10.176  54.980  0.00  0.00    -0.080 S 
ENDBRANCH  28  49
ENDBRANCH   1  28
TORSDOF 22
REMARK  Name = ../refined-set-2016/4lkq/4lkq_pocket.pdb
REMARK  110 active torsions:
REMARK  status: ('A' for Active; 'I' for Inactive)
REMARK    1  A    between atoms: _1  and  _3
REMARK    2  A    between atoms: _3  and  _4
REMARK    3  A    between atoms: _3  and  _6
REMARK    4  A    between atoms: _6  and  _7
REMARK    5  A    between atoms: _12  and  _13
REMARK    6  A    between atoms: _15  and  _17
REMARK    7  A    between atoms: _17  and  _18
REMARK    8  A    between atoms: _17  and  _20
REMARK    9  A    between atoms: _20  and  _21
REMARK   10  A    between atoms: _26  and  _28
REMARK   11  A    between atoms: _28  and  _29
REMARK   12  A    between atoms: _28  and  _31
REMARK   13  A    between atoms: _31  and  _32
REMARK   14  A    between atoms: _37  and  _39
REMARK   15  A    between atoms: _39  and  _40
REMARK   16  A    between atoms: _39  and  _42
REMARK   17  A    between atoms: _42  and  _43
REMARK   18  A    between atoms: _46  and  _48
REMARK   19  A    between atoms: _48  and  _49
REMARK   20  A    between atoms: _48  and  _51
REMARK   21  A    between atoms: _51  and  _52
REMARK   22  A    between atoms: _55  and  _57
REMARK   23  A    between atoms: _57  and  _58
REMARK   24  A    between atoms: _57  and  _60
REMARK   25  A    between atoms: _60  and  _61
REMARK   26  A    between atoms: _64  and  _66
REMARK   27  A    between atoms: _66  and  _67
REMARK   28  A    between atoms: _66  and  _69
REMARK   29  A    between atoms: _71  and  _73
REMARK   30  A    between atoms: _73  and  _74
REMARK   31  A    between atoms: _73  and  _76
REMARK   32  A    between atoms: _76  and  _77
REMARK   33  A    between atoms: _79  and  _81
REMARK   34  A    between atoms: _81  and  _82
REMARK   35  A    between atoms: _81  and  _84
REMARK   36  A    between atoms: _87  and  _89
REMARK   37  A    between atoms: _89  and  _90
REMARK   38  A    between atoms: _89  and  _92
REMARK   39  A    between atoms: _92  and  _93
REMARK   40  A    between atoms: _96  and  _98
REMARK   41  A    between atoms: _98  and  _99
REMARK   42  A    between atoms: _98  and  _101
REMARK   43  A    between atoms: _101  and  _102
REMARK   44  A    between atoms: _105  and  _107
REMARK   45  A    between atoms: _107  and  _108
REMARK   46  A    between atoms: _107  and  _110
REMARK   47  A    between atoms: _110  and  _111
REMARK   48  A    between atoms: _114  and  _116
REMARK   49  A    between atoms: _116  and  _117
REMARK   50  A    between atoms: _120  and  _122
REMARK   51  A    between atoms: _122  and  _123
REMARK   52  A    between atoms: _122  and  _125
REMARK   53  A    between atoms: _125  and  _126
REMARK   54  A    between atoms: _129  and  _131
REMARK   55  A    between atoms: _131  and  _132
REMARK   56  A    between atoms: _131  and  _134
REMARK   57  A    between atoms: _134  and  _135
REMARK   58  A    between atoms: _140  and  _141
REMARK   59  A    between atoms: _143  and  _145
REMARK   60  A    between atoms: _145  and  _146
REMARK   61  A    between atoms: _145  and  _148
REMARK   62  A    between atoms: _148  and  _149
REMARK   63  A    between atoms: _155  and  _157
REMARK   64  A    between atoms: _157  and  _158
REMARK   65  A    between atoms: _157  and  _160
REMARK   66  A    between atoms: _160  and  _161
REMARK   67  A    between atoms: _164  and  _166
REMARK   68  A    between atoms: _166  and  _167
REMARK   69  A    between atoms: _166  and  _169
REMARK   70  A    between atoms: _169  and  _170
REMARK   71  A    between atoms: _170  and  _171
REMARK   72  A    between atoms: _173  and  _175
REMARK   73  A    between atoms: _175  and  _176
REMARK   74  A    between atoms: _175  and  _178
REMARK   75  A    between atoms: _178  and  _179
REMARK   76  A    between atoms: _179  and  _180
REMARK   77  A    between atoms: _182  and  _184
REMARK   78  A    between atoms: _184  and  _185
REMARK   79  A    between atoms: _184  and  _187
REMARK   80  A    between atoms: _190  and  _192
REMARK   81  A    between atoms: _192  and  _193
REMARK   82  A    between atoms: _195  and  _197
REMARK   83  A    between atoms: _197  and  _198
REMARK   84  A    between atoms: _197  and  _200
REMARK   85  A    between atoms: _200  and  _201
REMARK   86  A    between atoms: _201  and  _202
REMARK   87  A    between atoms: _207  and  _209
REMARK   88  A    between atoms: _209  and  _210
REMARK   89  A    between atoms: _209  and  _212
REMARK   90  A    between atoms: _212  and  _213
REMARK   91  A    between atoms: _216  and  _218
REMARK   92  A    between atoms: _218  and  _219
REMARK   93  A    between atoms: _221  and  _223
REMARK   94  A    between atoms: _223  and  _224
REMARK   95  A    between atoms: _223  and  _226
REMARK   96  A    between atoms: _226  and  _227
REMARK   97  A    between atoms: _233  and  _235
REMARK   98  A    between atoms: _235  and  _236
REMARK   99  A    between atoms: _235  and  _238
REMARK  100  A    between atoms: _238  and  _239
REMARK  101  A    between atoms: _244  and  _245
REMARK  102  A    between atoms: _247  and  _249
REMARK  103  A    between atoms: _249  and  _250
REMARK  104  A    between atoms: _249  and  _252
REMARK  105  A    between atoms: _255  and  _257
REMARK  106  A    between atoms: _257  and  _258
REMARK  107  A    between atoms: _261  and  _263
REMARK  108  A    between atoms: _263  and  _264
REMARK  109  A    between atoms: _263  and  _266
REMARK  110  A    between atoms: _266  and  _267
REMARK                            x       y       z     vdW  Elec       q    Type
REMARK                         _______ _______ _______ _____ _____    ______ ____
ROOT
ATOM      1  CA  THR A   1       3.139  19.451  51.875  0.00  0.00    +0.160 C 
ENDROOT
BRANCH   1   2
ATOM      2  N   THR A   1       3.411  20.012  53.177  0.00  0.00    -0.237 NA
ATOM      3  H   THR A   1       2.616  20.193  53.822  0.00  0.00    +0.142 HD
ENDBRANCH   1   2
BRANCH   1   4
ATOM      4  CB  THR A   1       1.587  19.354  51.717  0.00  0.00    +0.134 C 
ATOM      5  CG2 THR A   1       1.240  18.751  50.405  0.00  0.00    +0.034 C 
BRANCH   4   6
ATOM      6  OG1 THR A   1       1.114  18.470  52.726  0.00  0.00    -0.383 OA
ATOM      7  HG1 THR A   1       1.532  17.581  52.607  0.00  0.00    +0.210 HD
ENDBRANCH   4   6
ENDBRANCH   1   4
BRANCH   1   8
ATOM      8  C   THR A   1       3.754  20.293  50.738  0.00  0.00    +0.227 C 
ATOM      9  O   THR A   1       4.321  19.747  49.775  0.00  0.00    -0.287 OA
ENDBRANCH   1   8
TORSDOF 4
REMARK  Name = ../refined-set-2016/4lkq/4lkq_pocket.pdb
REMARK  110 active torsions:
REMARK  status: ('A' for Active; 'I' for Inactive)
REMARK    1  A    between atoms: _1  and  _3
REMARK    2  A    between atoms: _3  and  _4
REMARK    3  A    between atoms: _3  and  _6
REMARK    4  A    between atoms: _6  and  _7
REMARK    5  A    between atoms: _12  and  _13
REMARK    6  A    between atoms: _15  and  _17
REMARK    7  A    between atoms: _17  and  _18
REMARK    8  A    between atoms: _17  and  _20
REMARK    9  A    between atoms: _20  and  _21
REMARK   10  A    between atoms: _26  and  _28
REMARK   11  A    between atoms: _28  and  _29
REMARK   12  A    between atoms: _28  and  _31
REMARK   13  A    between atoms: _31  and  _32
REMARK   14  A    between atoms: _37  and  _39
REMARK   15  A    between atoms: _39  and  _40
REMARK   16  A    between atoms: _39  and  _42
REMARK   17  A    between atoms: _42  and  _43
REMARK   18  A    between atoms: _46  and  _48
REMARK   19  A    between atoms: _48  and  _49
REMARK   20  A    between atoms: _48  and  _51
REMARK   21  A    between atoms: _51  and  _52
REMARK   22  A    between atoms: _55  and  _57
REMARK   23  A    between atoms: _57  and  _58
REMARK   24  A    between atoms: _57  and  _60
REMARK   25  A    between atoms: _60  and  _61
REMARK   26  A    between atoms: _64  and  _66
REMARK   27  A    between atoms: _66  and  _67
REMARK   28  A    between atoms: _66  and  _69
REMARK   29  A    between atoms: _71  and  _73
REMARK   30  A    between atoms: _73  and  _74
REMARK   31  A    between atoms: _73  and  _76
REMARK   32  A    between atoms: _76  and  _77
REMARK   33  A    between atoms: _79  and  _81
REMARK   34  A    between atoms: _81  and  _82
REMARK   35  A    between atoms: _81  and  _84
REMARK   36  A    between atoms: _87  and  _89
REMARK   37  A    between atoms: _89  and  _90
REMARK   38  A    between atoms: _89  and  _92
REMARK   39  A    between atoms: _92  and  _93
REMARK   40  A    between atoms: _96  and  _98
REMARK   41  A    between atoms: _98  and  _99
REMARK   42  A    between atoms: _98  and  _101
REMARK   43  A    between atoms: _101  and  _102
REMARK   44  A    between atoms: _105  and  _107
REMARK   45  A    between atoms: _107  and  _108
REMARK   46  A    between atoms: _107  and  _110
REMARK   47  A    between atoms: _110  and  _111
REMARK   48  A    between atoms: _114  and  _116
REMARK   49  A    between atoms: _116  and  _117
REMARK   50  A    between atoms: _120  and  _122
REMARK   51  A    between atoms: _122  and  _123
REMARK   52  A    between atoms: _122  and  _125
REMARK   53  A    between atoms: _125  and  _126
REMARK   54  A    between atoms: _129  and  _131
REMARK   55  A    between atoms: _131  and  _132
REMARK   56  A    between atoms: _131  and  _134
REMARK   57  A    between atoms: _134  and  _135
REMARK   58  A    between atoms: _140  and  _141
REMARK   59  A    between atoms: _143  and  _145
REMARK   60  A    between atoms: _145  and  _146
REMARK   61  A    between atoms: _145  and  _148
REMARK   62  A    between atoms: _148  and  _149
REMARK   63  A    between atoms: _155  and  _157
REMARK   64  A    between atoms: _157  and  _158
REMARK   65  A    between atoms: _157  and  _160
REMARK   66  A    between atoms: _160  and  _161
REMARK   67  A    between atoms: _164  and  _166
REMARK   68  A    between atoms: _166  and  _167
REMARK   69  A    between atoms: _166  and  _169
REMARK   70  A    between atoms: _169  and  _170
REMARK   71  A    between atoms: _170  and  _171
REMARK   72  A    between atoms: _173  and  _175
REMARK   73  A    between atoms: _175  and  _176
REMARK   74  A    between atoms: _175  and  _178
REMARK   75  A    between atoms: _178  and  _179
REMARK   76  A    between atoms: _179  and  _180
REMARK   77  A    between atoms: _182  and  _184
REMARK   78  A    between atoms: _184  and  _185
REMARK   79  A    between atoms: _184  and  _187
REMARK   80  A    between atoms: _190  and  _192
REMARK   81  A    between atoms: _192  and  _193
REMARK   82  A    between atoms: _195  and  _197
REMARK   83  A    between atoms: _197  and  _198
REMARK   84  A    between atoms: _197  and  _200
REMARK   85  A    between atoms: _200  and  _201
REMARK   86  A    between atoms: _201  and  _202
REMARK   87  A    between atoms: _207  and  _209
REMARK   88  A    between atoms: _209  and  _210
REMARK   89  A    between atoms: _209  and  _212
REMARK   90  A    between atoms: _212  and  _213
REMARK   91  A    between atoms: _216  and  _218
REMARK   92  A    between atoms: _218  and  _219
REMARK   93  A    between atoms: _221  and  _223
REMARK   94  A    between atoms: _223  and  _224
REMARK   95  A    between atoms: _223  and  _226
REMARK   96  A    between atoms: _226  and  _227
REMARK   97  A    between atoms: _233  and  _235
REMARK   98  A    between atoms: _235  and  _236
REMARK   99  A    between atoms: _235  and  _238
REMARK  100  A    between atoms: _238  and  _239
REMARK  101  A    between atoms: _244  and  _245
REMARK  102  A    between atoms: _247  and  _249
REMARK  103  A    between atoms: _249  and  _250
REMARK  104  A    between atoms: _249  and  _252
REMARK  105  A    between atoms: _255  and  _257
REMARK  106  A    between atoms: _257  and  _258
REMARK  107  A    between atoms: _261  and  _263
REMARK  108  A    between atoms: _263  and  _264
REMARK  109  A    between atoms: _263  and  _266
REMARK  110  A    between atoms: _266  and  _267
REMARK                            x       y       z     vdW  Elec       q    Type
REMARK                         _______ _______ _______ _____ _____    ______ ____
ROOT
ATOM      1  C   THR A   1       7.861  18.668  48.607  0.00  0.00    +0.241 C 
ATOM      2  N   ALA A   2       6.769  19.233  48.117  0.00  0.00    -0.298 N 
ATOM      3  H   ALA A   2       6.059  19.635  48.762  0.00  0.00    +0.150 HD
ATOM      4  O   THR A   1       8.673  18.115  47.872  0.00  0.00    -0.274 OA
ENDROOT
BRANCH   2   5
ATOM      5  CA  ALA A   2       6.560  19.293  46.678  0.00  0.00    +0.137 C 
ATOM      6  CB  ALA A   2       5.171  19.935  46.326  0.00  0.00    +0.030 C 
BRANCH   5   7
ATOM      7  C   ALA A   2       7.739  20.010  45.964  0.00  0.00    +0.227 C 
ATOM      8  O   ALA A   2       8.158  19.566  44.896  0.00  0.00    -0.286 OA
ENDBRANCH   5   7
ENDBRANCH   2   5
BRANCH   1   9
ATOM      9  CA  THR A   1       8.056  18.728  50.137  0.00  0.00    +0.172 C 
BRANCH   9  10
ATOM     10  N   THR A   1       7.642  20.041  50.615  0.00  0.00    -0.236 NA
ATOM     11  H   THR A   1       6.824  20.113  51.254  0.00  0.00    +0.142 HD
ENDBRANCH   9  10
BRANCH   9  12
ATOM     12  CB  THR A   1       7.305  17.598  50.845  0.00  0.00    +0.135 C 
ATOM     13  CG2 THR A   1       7.763  16.264  50.290  0.00  0.00    +0.034 C 
BRANCH  12  14
ATOM     14  OG1 THR A   1       7.595  17.634  52.251  0.00  0.00    -0.383 OA
ATOM     15  HG1 THR A   1       7.108  16.902  52.706  0.00  0.00    +0.210 HD
ENDBRANCH  12  14
ENDBRANCH   9  12
ENDBRANCH   1   9
TORSDOF 6
REMARK  Name = ../refined-set-2016/4lkq/4lkq_pocket.pdb
REMARK  110 active torsions:
REMARK  status: ('A' for Active; 'I' for Inactive)
REMARK    1  A    between atoms: _1  and  _3
REMARK    2  A    between atoms: _3  and  _4
REMARK    3  A    between atoms: _3  and  _6
REMARK    4  A    between atoms: _6  and  _7
REMARK    5  A    between atoms: _12  and  _13
REMARK    6  A    between atoms: _15  and  _17
REMARK    7  A    between atoms: _17  and  _18
REMARK    8  A    between atoms: _17  and  _20
REMARK    9  A    between atoms: _20  and  _21
REMARK   10  A    between atoms: _26  and  _28
REMARK   11  A    between atoms: _28  and  _29
REMARK   12  A    between atoms: _28  and  _31
REMARK   13  A    between atoms: _31  and  _32
REMARK   14  A    between atoms: _37  and  _39
REMARK   15  A    between atoms: _39  and  _40
REMARK   16  A    between atoms: _39  and  _42
REMARK   17  A    between atoms: _42  and  _43
REMARK   18  A    between atoms: _46  and  _48
REMARK   19  A    between atoms: _48  and  _49
REMARK   20  A    between atoms: _48  and  _51
REMARK   21  A    between atoms: _51  and  _52
REMARK   22  A    between atoms: _55  and  _57
REMARK   23  A    between atoms: _57  and  _58
REMARK   24  A    between atoms: _57  and  _60
REMARK   25  A    between atoms: _60  and  _61
REMARK   26  A    between atoms: _64  and  _66
REMARK   27  A    between atoms: _66  and  _67
REMARK   28  A    between atoms: _66  and  _69
REMARK   29  A    between atoms: _71  and  _73
REMARK   30  A    between atoms: _73  and  _74
REMARK   31  A    between atoms: _73  and  _76
REMARK   32  A    between atoms: _76  and  _77
REMARK   33  A    between atoms: _79  and  _81
REMARK   34  A    between atoms: _81  and  _82
REMARK   35  A    between atoms: _81  and  _84
REMARK   36  A    between atoms: _87  and  _89
REMARK   37  A    between atoms: _89  and  _90
REMARK   38  A    between atoms: _89  and  _92
REMARK   39  A    between atoms: _92  and  _93
REMARK   40  A    between atoms: _96  and  _98
REMARK   41  A    between atoms: _98  and  _99
REMARK   42  A    between atoms: _98  and  _101
REMARK   43  A    between atoms: _101  and  _102
REMARK   44  A    between atoms: _105  and  _107
REMARK   45  A    between atoms: _107  and  _108
REMARK   46  A    between atoms: _107  and  _110
REMARK   47  A    between atoms: _110  and  _111
REMARK   48  A    between atoms: _114  and  _116
REMARK   49  A    between atoms: _116  and  _117
REMARK   50  A    between atoms: _120  and  _122
REMARK   51  A    between atoms: _122  and  _123
REMARK   52  A    between atoms: _122  and  _125
REMARK   53  A    between atoms: _125  and  _126
REMARK   54  A    between atoms: _129  and  _131
REMARK   55  A    between atoms: _131  and  _132
REMARK   56  A    between atoms: _131  and  _134
REMARK   57  A    between atoms: _134  and  _135
REMARK   58  A    between atoms: _140  and  _141
REMARK   59  A    between atoms: _143  and  _145
REMARK   60  A    between atoms: _145  and  _146
REMARK   61  A    between atoms: _145  and  _148
REMARK   62  A    between atoms: _148  and  _149
REMARK   63  A    between atoms: _155  and  _157
REMARK   64  A    between atoms: _157  and  _158
REMARK   65  A    between atoms: _157  and  _160
REMARK   66  A    between atoms: _160  and  _161
REMARK   67  A    between atoms: _164  and  _166
REMARK   68  A    between atoms: _166  and  _167
REMARK   69  A    between atoms: _166  and  _169
REMARK   70  A    between atoms: _169  and  _170
REMARK   71  A    between atoms: _170  and  _171
REMARK   72  A    between atoms: _173  and  _175
REMARK   73  A    between atoms: _175  and  _176
REMARK   74  A    between atoms: _175  and  _178
REMARK   75  A    between atoms: _178  and  _179
REMARK   76  A    between atoms: _179  and  _180
REMARK   77  A    between atoms: _182  and  _184
REMARK   78  A    between atoms: _184  and  _185
REMARK   79  A    between atoms: _184  and  _187
REMARK   80  A    between atoms: _190  and  _192
REMARK   81  A    between atoms: _192  and  _193
REMARK   82  A    between atoms: _195  and  _197
REMARK   83  A    between atoms: _197  and  _198
REMARK   84  A    between atoms: _197  and  _200
REMARK   85  A    between atoms: _200  and  _201
REMARK   86  A    between atoms: _201  and  _202
REMARK   87  A    between atoms: _207  and  _209
REMARK   88  A    between atoms: _209  and  _210
REMARK   89  A    between atoms: _209  and  _212
REMARK   90  A    between atoms: _212  and  _213
REMARK   91  A    between atoms: _216  and  _218
REMARK   92  A    between atoms: _218  and  _219
REMARK   93  A    between atoms: _221  and  _223
REMARK   94  A    between atoms: _223  and  _224
REMARK   95  A    between atoms: _223  and  _226
REMARK   96  A    between atoms: _226  and  _227
REMARK   97  A    between atoms: _233  and  _235
REMARK   98  A    between atoms: _235  and  _236
REMARK   99  A    between atoms: _235  and  _238
REMARK  100  A    between atoms: _238  and  _239
REMARK  101  A    between atoms: _244  and  _245
REMARK  102  A    between atoms: _247  and  _249
REMARK  103  A    between atoms: _249  and  _250
REMARK  104  A    between atoms: _249  and  _252
REMARK  105  A    between atoms: _255  and  _257
REMARK  106  A    between atoms: _257  and  _258
REMARK  107  A    between atoms: _261  and  _263
REMARK  108  A    between atoms: _263  and  _264
REMARK  109  A    between atoms: _263  and  _266
REMARK  110  A    between atoms: _266  and  _267
REMARK                            x       y       z     vdW  Elec       q    Type
REMARK                         _______ _______ _______ _____ _____    ______ ____
ROOT
ATOM      1  CA  TYR A   2      10.033  18.765  41.626  0.00  0.00    +0.141 C 
ENDROOT
BRANCH   1   3
ATOM      2  C   ILE A   1      10.344  16.929  43.167  0.00  0.00    +0.238 C 
ATOM      3  N   TYR A   2       9.878  18.157  42.932  0.00  0.00    -0.298 N 
ATOM      4  H   TYR A   2       9.400  18.682  43.692  0.00  0.00    +0.150 HD
ATOM      5  O   ILE A   1      10.983  16.288  42.316  0.00  0.00    -0.274 OA
BRANCH   2   6
ATOM      6  CA  ILE A   1      10.059  16.332  44.566  0.00  0.00    +0.145 C 
BRANCH   6   7
ATOM      7  N   ILE A   1      10.447  17.302  45.592  0.00  0.00    -0.238 NA
ATOM      8  H   ILE A   1       9.745  17.591  46.303  0.00  0.00    +0.142 HD
ENDBRANCH   6   7
BRANCH   6   9
ATOM      9  CB  ILE A   1       8.510  16.038  44.743  0.00  0.00    +0.025 C 
ATOM     10  CG2 ILE A   1       7.890  15.381  43.557  0.00  0.00    +0.002 C 
BRANCH   9  11
ATOM     11  CG1 ILE A   1       8.274  15.271  46.045  0.00  0.00    +0.002 C 
ATOM     12  CD1 ILE A   1       6.788  15.352  46.557  0.00  0.00    +0.000 C 
ENDBRANCH   9  11
ENDBRANCH   6   9
ENDBRANCH   2   6
ENDBRANCH   1   3
BRANCH   1  13
ATOM     13  C   TYR A   2      11.472  19.077  41.318  0.00  0.00    +0.227 C 
ATOM     14  O   TYR A   2      11.847  19.014  40.157  0.00  0.00    -0.286 OA
ENDBRANCH   1  13
BRANCH   1  15
ATOM     15  CB  TYR A   2       9.153  19.981  41.442  0.00  0.00    +0.054 C 
BRANCH  15  16
ATOM     16  CG  TYR A   2       7.793  19.571  40.972  0.00  0.00    -0.020 A 
ATOM     17  CD2 TYR A   2       6.791  19.262  41.890  0.00  0.00    -0.001 A 
ATOM     18  CE2 TYR A   2       5.524  18.865  41.440  0.00  0.00    +0.036 A 
ATOM     19  CZ  TYR A   2       5.273  18.790  40.069  0.00  0.00    +0.134 A 
ATOM     20  CE1 TYR A   2       6.258  19.074  39.147  0.00  0.00    +0.036 A 
ATOM     21  CD1 TYR A   2       7.515  19.461  39.609  0.00  0.00    -0.001 A 
BRANCH  19  22
ATOM     22  OH  TYR A   2       4.040  18.416  39.649  0.00  0.00    -0.506 OA
ATOM     23  HH  TYR A   2       3.461  18.252  40.435  0.00  0.00    +0.292 HD
ENDBRANCH  19  22
ENDBRANCH  15  16
ENDBRANCH   1  15
TORSDOF 9
REMARK  Name = ../refined-set-2016/4lkq/4lkq_pocket.pdb
REMARK  110 active torsions:
REMARK  status: ('A' for Active; 'I' for Inactive)
REMARK    1  A    between atoms: _1  and  _3
REMARK    2  A    between atoms: _3  and  _4
REMARK    3  A    between atoms: _3  and  _6
REMARK    4  A    between atoms: _6  and  _7
REMARK    5  A    between atoms: _12  and  _13
REMARK    6  A    between atoms: _15  and  _17
REMARK    7  A    between atoms: _17  and  _18
REMARK    8  A    between atoms: _17  and  _20
REMARK    9  A    between atoms: _20  and  _21
REMARK   10  A    between atoms: _26  and  _28
REMARK   11  A    between atoms: _28  and  _29
REMARK   12  A    between atoms: _28  and  _31
REMARK   13  A    between atoms: _31  and  _32
REMARK   14  A    between atoms: _37  and  _39
REMARK   15  A    between atoms: _39  and  _40
REMARK   16  A    between atoms: _39  and  _42
REMARK   17  A    between atoms: _42  and  _43
REMARK   18  A    between atoms: _46  and  _48
REMARK   19  A    between atoms: _48  and  _49
REMARK   20  A    between atoms: _48  and  _51
REMARK   21  A    between atoms: _51  and  _52
REMARK   22  A    between atoms: _55  and  _57
REMARK   23  A    between atoms: _57  and  _58
REMARK   24  A    between atoms: _57  and  _60
REMARK   25  A    between atoms: _60  and  _61
REMARK   26  A    between atoms: _64  and  _66
REMARK   27  A    between atoms: _66  and  _67
REMARK   28  A    between atoms: _66  and  _69
REMARK   29  A    between atoms: _71  and  _73
REMARK   30  A    between atoms: _73  and  _74
REMARK   31  A    between atoms: _73  and  _76
REMARK   32  A    between atoms: _76  and  _77
REMARK   33  A    between atoms: _79  and  _81
REMARK   34  A    between atoms: _81  and  _82
REMARK   35  A    between atoms: _81  and  _84
REMARK   36  A    between atoms: _87  and  _89
REMARK   37  A    between atoms: _89  and  _90
REMARK   38  A    between atoms: _89  and  _92
REMARK   39  A    between atoms: _92  and  _93
REMARK   40  A    between atoms: _96  and  _98
REMARK   41  A    between atoms: _98  and  _99
REMARK   42  A    between atoms: _98  and  _101
REMARK   43  A    between atoms: _101  and  _102
REMARK   44  A    between atoms: _105  and  _107
REMARK   45  A    between atoms: _107  and  _108
REMARK   46  A    between atoms: _107  and  _110
REMARK   47  A    between atoms: _110  and  _111
REMARK   48  A    between atoms: _114  and  _116
REMARK   49  A    between atoms: _116  and  _117
REMARK   50  A    between atoms: _120  and  _122
REMARK   51  A    between atoms: _122  and  _123
REMARK   52  A    between atoms: _122  and  _125
REMARK   53  A    between atoms: _125  and  _126
REMARK   54  A    between atoms: _129  and  _131
REMARK   55  A    between atoms: _131  and  _132
REMARK   56  A    between atoms: _131  and  _134
REMARK   57  A    between atoms: _134  and  _135
REMARK   58  A    between atoms: _140  and  _141
REMARK   59  A    between atoms: _143  and  _145
REMARK   60  A    between atoms: _145  and  _146
REMARK   61  A    between atoms: _145  and  _148
REMARK   62  A    between atoms: _148  and  _149
REMARK   63  A    between atoms: _155  and  _157
REMARK   64  A    between atoms: _157  and  _158
REMARK   65  A    between atoms: _157  and  _160
REMARK   66  A    between atoms: _160  and  _161
REMARK   67  A    between atoms: _164  and  _166
REMARK   68  A    between atoms: _166  and  _167
REMARK   69  A    between atoms: _166  and  _169
REMARK   70  A    between atoms: _169  and  _170
REMARK   71  A    between atoms: _170  and  _171
REMARK   72  A    between atoms: _173  and  _175
REMARK   73  A    between atoms: _175  and  _176
REMARK   74  A    between atoms: _175  and  _178
REMARK   75  A    between atoms: _178  and  _179
REMARK   76  A    between atoms: _179  and  _180
REMARK   77  A    between atoms: _182  and  _184
REMARK   78  A    between atoms: _184  and  _185
REMARK   79  A    between atoms: _184  and  _187
REMARK   80  A    between atoms: _190  and  _192
REMARK   81  A    between atoms: _192  and  _193
REMARK   82  A    between atoms: _195  and  _197
REMARK   83  A    between atoms: _197  and  _198
REMARK   84  A    between atoms: _197  and  _200
REMARK   85  A    between atoms: _200  and  _201
REMARK   86  A    between atoms: _201  and  _202
REMARK   87  A    between atoms: _207  and  _209
REMARK   88  A    between atoms: _209  and  _210
REMARK   89  A    between atoms: _209  and  _212
REMARK   90  A    between atoms: _212  and  _213
REMARK   91  A    between atoms: _216  and  _218
REMARK   92  A    between atoms: _218  and  _219
REMARK   93  A    between atoms: _221  and  _223
REMARK   94  A    between atoms: _223  and  _224
REMARK   95  A    between atoms: _223  and  _226
REMARK   96  A    between atoms: _226  and  _227
REMARK   97  A    between atoms: _233  and  _235
REMARK   98  A    between atoms: _235  and  _236
REMARK   99  A    between atoms: _235  and  _238
REMARK  100  A    between atoms: _238  and  _239
REMARK  101  A    between atoms: _244  and  _245
REMARK  102  A    between atoms: _247  and  _249
REMARK  103  A    between atoms: _249  and  _250
REMARK  104  A    between atoms: _249  and  _252
REMARK  105  A    between atoms: _255  and  _257
REMARK  106  A    between atoms: _257  and  _258
REMARK  107  A    between atoms: _261  and  _263
REMARK  108  A    between atoms: _263  and  _264
REMARK  109  A    between atoms: _263  and  _266
REMARK  110  A    between atoms: _266  and  _267
REMARK                            x       y       z     vdW  Elec       q    Type
REMARK                         _______ _______ _______ _____ _____    ______ ____
ROOT
ATOM      1  CB  PHE A   1      10.392  16.255  38.490  0.00  0.00    +0.051 C 
ENDROOT
BRANCH   1   2
ATOM      2  CG  PHE A   1       9.480  15.308  39.254  0.00  0.00    -0.020 A 
ATOM      3  CD2 PHE A   1       8.219  15.749  39.667  0.00  0.00    -0.004 A 
ATOM      4  CE2 PHE A   1       7.337  14.892  40.339  0.00  0.00    -0.000 A 
ATOM      5  CZ  PHE A   1       7.719  13.583  40.605  0.00  0.00    -0.000 A 
ATOM      6  CE1 PHE A   1       8.984  13.133  40.204  0.00  0.00    -0.000 A 
ATOM      7  CD1 PHE A   1       9.843  14.002  39.500  0.00  0.00    -0.004 A 
ENDBRANCH   1   2
BRANCH   1   8
ATOM      8  CA  PHE A   1      11.860  15.812  38.428  0.00  0.00    +0.137 C 
BRANCH   8   9
ATOM      9  N   PHE A   1      12.501  15.962  39.696  0.00  0.00    -0.239 NA
ATOM     10  H   PHE A   1      11.941  16.274  40.515  0.00  0.00    +0.142 HD
ENDBRANCH   8   9
BRANCH   8  11
ATOM     11  C   PHE A   1      12.568  16.686  37.361  0.00  0.00    +0.224 C 
ATOM     12  O   PHE A   1      12.827  16.213  36.265  0.00  0.00    -0.287 OA
ENDBRANCH   8  11
ENDBRANCH   1   8
TORSDOF 4
REMARK  Name = ../refined-set-2016/4lkq/4lkq_pocket.pdb
REMARK  110 active torsions:
REMARK  status: ('A' for Active; 'I' for Inactive)
REMARK    1  A    between atoms: _1  and  _3
REMARK    2  A    between atoms: _3  and  _4
REMARK    3  A    between atoms: _3  and  _6
REMARK    4  A    between atoms: _6  and  _7
REMARK    5  A    between atoms: _12  and  _13
REMARK    6  A    between atoms: _15  and  _17
REMARK    7  A    between atoms: _17  and  _18
REMARK    8  A    between atoms: _17  and  _20
REMARK    9  A    between atoms: _20  and  _21
REMARK   10  A    between atoms: _26  and  _28
REMARK   11  A    between atoms: _28  and  _29
REMARK   12  A    between atoms: _28  and  _31
REMARK   13  A    between atoms: _31  and  _32
REMARK   14  A    between atoms: _37  and  _39
REMARK   15  A    between atoms: _39  and  _40
REMARK   16  A    between atoms: _39  and  _42
REMARK   17  A    between atoms: _42  and  _43
REMARK   18  A    between atoms: _46  and  _48
REMARK   19  A    between atoms: _48  and  _49
REMARK   20  A    between atoms: _48  and  _51
REMARK   21  A    between atoms: _51  and  _52
REMARK   22  A    between atoms: _55  and  _57
REMARK   23  A    between atoms: _57  and  _58
REMARK   24  A    between atoms: _57  and  _60
REMARK   25  A    between atoms: _60  and  _61
REMARK   26  A    between atoms: _64  and  _66
REMARK   27  A    between atoms: _66  and  _67
REMARK   28  A    between atoms: _66  and  _69
REMARK   29  A    between atoms: _71  and  _73
REMARK   30  A    between atoms: _73  and  _74
REMARK   31  A    between atoms: _73  and  _76
REMARK   32  A    between atoms: _76  and  _77
REMARK   33  A    between atoms: _79  and  _81
REMARK   34  A    between atoms: _81  and  _82
REMARK   35  A    between atoms: _81  and  _84
REMARK   36  A    between atoms: _87  and  _89
REMARK   37  A    between atoms: _89  and  _90
REMARK   38  A    between atoms: _89  and  _92
REMARK   39  A    between atoms: _92  and  _93
REMARK   40  A    between atoms: _96  and  _98
REMARK   41  A    between atoms: _98  and  _99
REMARK   42  A    between atoms: _98  and  _101
REMARK   43  A    between atoms: _101  and  _102
REMARK   44  A    between atoms: _105  and  _107
REMARK   45  A    between atoms: _107  and  _108
REMARK   46  A    between atoms: _107  and  _110
REMARK   47  A    between atoms: _110  and  _111
REMARK   48  A    between atoms: _114  and  _116
REMARK   49  A    between atoms: _116  and  _117
REMARK   50  A    between atoms: _120  and  _122
REMARK   51  A    between atoms: _122  and  _123
REMARK   52  A    between atoms: _122  and  _125
REMARK   53  A    between atoms: _125  and  _126
REMARK   54  A    between atoms: _129  and  _131
REMARK   55  A    between atoms: _131  and  _132
REMARK   56  A    between atoms: _131  and  _134
REMARK   57  A    between atoms: _134  and  _135
REMARK   58  A    between atoms: _140  and  _141
REMARK   59  A    between atoms: _143  and  _145
REMARK   60  A    between atoms: _145  and  _146
REMARK   61  A    between atoms: _145  and  _148
REMARK   62  A    between atoms: _148  and  _149
REMARK   63  A    between atoms: _155  and  _157
REMARK   64  A    between atoms: _157  and  _158
REMARK   65  A    between atoms: _157  and  _160
REMARK   66  A    between atoms: _160  and  _161
REMARK   67  A    between atoms: _164  and  _166
REMARK   68  A    between atoms: _166  and  _167
REMARK   69  A    between atoms: _166  and  _169
REMARK   70  A    between atoms: _169  and  _170
REMARK   71  A    between atoms: _170  and  _171
REMARK   72  A    between atoms: _173  and  _175
REMARK   73  A    between atoms: _175  and  _176
REMARK   74  A    between atoms: _175  and  _178
REMARK   75  A    between atoms: _178  and  _179
REMARK   76  A    between atoms: _179  and  _180
REMARK   77  A    between atoms: _182  and  _184
REMARK   78  A    between atoms: _184  and  _185
REMARK   79  A    between atoms: _184  and  _187
REMARK   80  A    between atoms: _190  and  _192
REMARK   81  A    between atoms: _192  and  _193
REMARK   82  A    between atoms: _195  and  _197
REMARK   83  A    between atoms: _197  and  _198
REMARK   84  A    between atoms: _197  and  _200
REMARK   85  A    between atoms: _200  and  _201
REMARK   86  A    between atoms: _201  and  _202
REMARK   87  A    between atoms: _207  and  _209
REMARK   88  A    between atoms: _209  and  _210
REMARK   89  A    between atoms: _209  and  _212
REMARK   90  A    between atoms: _212  and  _213
REMARK   91  A    between atoms: _216  and  _218
REMARK   92  A    between atoms: _218  and  _219
REMARK   93  A    between atoms: _221  and  _223
REMARK   94  A    between atoms: _223  and  _224
REMARK   95  A    between atoms: _223  and  _226
REMARK   96  A    between atoms: _226  and  _227
REMARK   97  A    between atoms: _233  and  _235
REMARK   98  A    between atoms: _235  and  _236
REMARK   99  A    between atoms: _235  and  _238
REMARK  100  A    between atoms: _238  and  _239
REMARK  101  A    between atoms: _244  and  _245
REMARK  102  A    between atoms: _247  and  _249
REMARK  103  A    between atoms: _249  and  _250
REMARK  104  A    between atoms: _249  and  _252
REMARK  105  A    between atoms: _255  and  _257
REMARK  106  A    between atoms: _257  and  _258
REMARK  107  A    between atoms: _261  and  _263
REMARK  108  A    between atoms: _263  and  _264
REMARK  109  A    between atoms: _263  and  _266
REMARK  110  A    between atoms: _266  and  _267
REMARK                            x       y       z     vdW  Elec       q    Type
REMARK                         _______ _______ _______ _____ _____    ______ ____
ROOT
ATOM      1  CA  ILE A   1       7.124  15.126  29.982  0.00  0.00    +0.133 C 
ENDROOT
BRANCH   1   2
ATOM      2  N   ILE A   1       8.532  14.856  29.691  0.00  0.00    -0.239 NA
ATOM      3  H   ILE A   1       9.007  14.028  30.103  0.00  0.00    +0.142 HD
ENDBRANCH   1   2
BRANCH   1   4
ATOM      4  CB  ILE A   1       6.491  14.065  30.930  0.00  0.00    +0.023 C 
ATOM      5  CG2 ILE A   1       6.416  12.696  30.216  0.00  0.00    +0.002 C 
BRANCH   4   6
ATOM      6  CG1 ILE A   1       7.291  13.951  32.237  0.00  0.00    +0.002 C 
ATOM      7  CD1 ILE A   1       6.706  13.002  33.266  0.00  0.00    +0.000 C 
ENDBRANCH   4   6
ENDBRANCH   1   4
BRANCH   1   8
ATOM      8  C   ILE A   1       7.074  16.525  30.630  0.00  0.00    +0.224 C 
ATOM      9  O   ILE A   1       8.054  16.962  31.237  0.00  0.00    -0.287 OA
ENDBRANCH   1   8
TORSDOF 4
REMARK  Name = ../refined-set-2016/4lkq/4lkq_pocket.pdb
REMARK  110 active torsions:
REMARK  status: ('A' for Active; 'I' for Inactive)
REMARK    1  A    between atoms: _1  and  _3
REMARK    2  A    between atoms: _3  and  _4
REMARK    3  A    between atoms: _3  and  _6
REMARK    4  A    between atoms: _6  and  _7
REMARK    5  A    between atoms: _12  and  _13
REMARK    6  A    between atoms: _15  and  _17
REMARK    7  A    between atoms: _17  and  _18
REMARK    8  A    between atoms: _17  and  _20
REMARK    9  A    between atoms: _20  and  _21
REMARK   10  A    between atoms: _26  and  _28
REMARK   11  A    between atoms: _28  and  _29
REMARK   12  A    between atoms: _28  and  _31
REMARK   13  A    between atoms: _31  and  _32
REMARK   14  A    between atoms: _37  and  _39
REMARK   15  A    between atoms: _39  and  _40
REMARK   16  A    between atoms: _39  and  _42
REMARK   17  A    between atoms: _42  and  _43
REMARK   18  A    between atoms: _46  and  _48
REMARK   19  A    between atoms: _48  and  _49
REMARK   20  A    between atoms: _48  and  _51
REMARK   21  A    between atoms: _51  and  _52
REMARK   22  A    between atoms: _55  and  _57
REMARK   23  A    between atoms: _57  and  _58
REMARK   24  A    between atoms: _57  and  _60
REMARK   25  A    between atoms: _60  and  _61
REMARK   26  A    between atoms: _64  and  _66
REMARK   27  A    between atoms: _66  and  _67
REMARK   28  A    between atoms: _66  and  _69
REMARK   29  A    between atoms: _71  and  _73
REMARK   30  A    between atoms: _73  and  _74
REMARK   31  A    between atoms: _73  and  _76
REMARK   32  A    between atoms: _76  and  _77
REMARK   33  A    between atoms: _79  and  _81
REMARK   34  A    between atoms: _81  and  _82
REMARK   35  A    between atoms: _81  and  _84
REMARK   36  A    between atoms: _87  and  _89
REMARK   37  A    between atoms: _89  and  _90
REMARK   38  A    between atoms: _89  and  _92
REMARK   39  A    between atoms: _92  and  _93
REMARK   40  A    between atoms: _96  and  _98
REMARK   41  A    between atoms: _98  and  _99
REMARK   42  A    between atoms: _98  and  _101
REMARK   43  A    between atoms: _101  and  _102
REMARK   44  A    between atoms: _105  and  _107
REMARK   45  A    between atoms: _107  and  _108
REMARK   46  A    between atoms: _107  and  _110
REMARK   47  A    between atoms: _110  and  _111
REMARK   48  A    between atoms: _114  and  _116
REMARK   49  A    between atoms: _116  and  _117
REMARK   50  A    between atoms: _120  and  _122
REMARK   51  A    between atoms: _122  and  _123
REMARK   52  A    between atoms: _122  and  _125
REMARK   53  A    between atoms: _125  and  _126
REMARK   54  A    between atoms: _129  and  _131
REMARK   55  A    between atoms: _131  and  _132
REMARK   56  A    between atoms: _131  and  _134
REMARK   57  A    between atoms: _134  and  _135
REMARK   58  A    between atoms: _140  and  _141
REMARK   59  A    between atoms: _143  and  _145
REMARK   60  A    between atoms: _145  and  _146
REMARK   61  A    between atoms: _145  and  _148
REMARK   62  A    between atoms: _148  and  _149
REMARK   63  A    between atoms: _155  and  _157
REMARK   64  A    between atoms: _157  and  _158
REMARK   65  A    between atoms: _157  and  _160
REMARK   66  A    between atoms: _160  and  _161
REMARK   67  A    between atoms: _164  and  _166
REMARK   68  A    between atoms: _166  and  _167
REMARK   69  A    between atoms: _166  and  _169
REMARK   70  A    between atoms: _169  and  _170
REMARK   71  A    between atoms: _170  and  _171
REMARK   72  A    between atoms: _173  and  _175
REMARK   73  A    between atoms: _175  and  _176
REMARK   74  A    between atoms: _175  and  _178
REMARK   75  A    between atoms: _178  and  _179
REMARK   76  A    between atoms: _179  and  _180
REMARK   77  A    between atoms: _182  and  _184
REMARK   78  A    between atoms: _184  and  _185
REMARK   79  A    between atoms: _184  and  _187
REMARK   80  A    between atoms: _190  and  _192
REMARK   81  A    between atoms: _192  and  _193
REMARK   82  A    between atoms: _195  and  _197
REMARK   83  A    between atoms: _197  and  _198
REMARK   84  A    between atoms: _197  and  _200
REMARK   85  A    between atoms: _200  and  _201
REMARK   86  A    between atoms: _201  and  _202
REMARK   87  A    between atoms: _207  and  _209
REMARK   88  A    between atoms: _209  and  _210
REMARK   89  A    between atoms: _209  and  _212
REMARK   90  A    between atoms: _212  and  _213
REMARK   91  A    between atoms: _216  and  _218
REMARK   92  A    between atoms: _218  and  _219
REMARK   93  A    between atoms: _221  and  _223
REMARK   94  A    between atoms: _223  and  _224
REMARK   95  A    between atoms: _223  and  _226
REMARK   96  A    between atoms: _226  and  _227
REMARK   97  A    between atoms: _233  and  _235
REMARK   98  A    between atoms: _235  and  _236
REMARK   99  A    between atoms: _235  and  _238
REMARK  100  A    between atoms: _238  and  _239
REMARK  101  A    between atoms: _244  and  _245
REMARK  102  A    between atoms: _247  and  _249
REMARK  103  A    between atoms: _249  and  _250
REMARK  104  A    between atoms: _249  and  _252
REMARK  105  A    between atoms: _255  and  _257
REMARK  106  A    between atoms: _257  and  _258
REMARK  107  A    between atoms: _261  and  _263
REMARK  108  A    between atoms: _263  and  _264
REMARK  109  A    between atoms: _263  and  _266
REMARK  110  A    between atoms: _266  and  _267
REMARK                            x       y       z     vdW  Elec       q    Type
REMARK                         _______ _______ _______ _____ _____    ______ ____
ROOT
ATOM      1  C   MET A   1       7.595  17.621  35.112  0.00  0.00    +0.238 C 
ATOM      2  O   MET A   1       7.962  18.109  36.177  0.00  0.00    -0.274 OA
ATOM      3  N   MET A   2       8.420  17.151  34.172  0.00  0.00    -0.298 N 
ATOM      4  H   MET A   2       8.039  16.812  33.266  0.00  0.00    +0.150 HD
ENDROOT
BRANCH   1   5
ATOM      5  CA  MET A   1       6.121  17.512  34.785  0.00  0.00    +0.146 C 
BRANCH   5   6
ATOM      6  N   MET A   1       5.921  17.561  33.356  0.00  0.00    -0.238 NA
ATOM      7  H   MET A   1       5.505  16.734  32.883  0.00  0.00    +0.142 HD
ENDBRANCH   5   6
BRANCH   5   8
ATOM      8  CB  MET A   1       5.580  16.195  35.317  0.00  0.00    +0.038 C 
BRANCH   8   9
ATOM      9  CG  MET A   1       5.369  16.168  36.825  0.00  0.00    +0.060 C 
BRANCH   9  10
ATOM     10  SD  MET A   1       5.051  14.519  37.522  0.00  0.00    -0.139 S 
ATOM     11  CE  MET A   1       6.594  13.671  37.194  0.00  0.00    +0.069 C 
ENDBRANCH   9  10
ENDBRANCH   8   9
ENDBRANCH   5   8
ENDBRANCH   1   5
BRANCH   3  12
ATOM     12  CA  MET A   2       9.856  17.115  34.420  0.00  0.00    +0.138 C 
BRANCH  12  13
ATOM     13  C   MET A   2      10.538  18.280  33.718  0.00  0.00    +0.227 C 
ATOM     14  O   MET A   2      11.775  18.390  33.707  0.00  0.00    -0.286 OA
ENDBRANCH  12  13
BRANCH  12  15
ATOM     15  CB  MET A   2      10.430  15.782  33.955  0.00  0.00    +0.039 C 
BRANCH  15  16
ATOM     16  CG  MET A   2       9.992  14.618  34.853  0.00  0.00    +0.060 C 
BRANCH  16  17
ATOM     17  SD  MET A   2      10.825  13.094  34.355  0.00  0.00    -0.139 S 
ATOM     18  CE  MET A   2       9.974  11.895  35.393  0.00  0.00    +0.069 C 
ENDBRANCH  16  17
ENDBRANCH  15  16
ENDBRANCH  12  15
ENDBRANCH   3  12
TORSDOF 10
REMARK  Name = ../refined-set-2016/4lkq/4lkq_pocket.pdb
REMARK  110 active torsions:
REMARK  status: ('A' for Active; 'I' for Inactive)
REMARK    1  A    between atoms: _1  and  _3
REMARK    2  A    between atoms: _3  and  _4
REMARK    3  A    between atoms: _3  and  _6
REMARK    4  A    between atoms: _6  and  _7
REMARK    5  A    between atoms: _12  and  _13
REMARK    6  A    between atoms: _15  and  _17
REMARK    7  A    between atoms: _17  and  _18
REMARK    8  A    between atoms: _17  and  _20
REMARK    9  A    between atoms: _20  and  _21
REMARK   10  A    between atoms: _26  and  _28
REMARK   11  A    between atoms: _28  and  _29
REMARK   12  A    between atoms: _28  and  _31
REMARK   13  A    between atoms: _31  and  _32
REMARK   14  A    between atoms: _37  and  _39
REMARK   15  A    between atoms: _39  and  _40
REMARK   16  A    between atoms: _39  and  _42
REMARK   17  A    between atoms: _42  and  _43
REMARK   18  A    between atoms: _46  and  _48
REMARK   19  A    between atoms: _48  and  _49
REMARK   20  A    between atoms: _48  and  _51
REMARK   21  A    between atoms: _51  and  _52
REMARK   22  A    between atoms: _55  and  _57
REMARK   23  A    between atoms: _57  and  _58
REMARK   24  A    between atoms: _57  and  _60
REMARK   25  A    between atoms: _60  and  _61
REMARK   26  A    between atoms: _64  and  _66
REMARK   27  A    between atoms: _66  and  _67
REMARK   28  A    between atoms: _66  and  _69
REMARK   29  A    between atoms: _71  and  _73
REMARK   30  A    between atoms: _73  and  _74
REMARK   31  A    between atoms: _73  and  _76
REMARK   32  A    between atoms: _76  and  _77
REMARK   33  A    between atoms: _79  and  _81
REMARK   34  A    between atoms: _81  and  _82
REMARK   35  A    between atoms: _81  and  _84
REMARK   36  A    between atoms: _87  and  _89
REMARK   37  A    between atoms: _89  and  _90
REMARK   38  A    between atoms: _89  and  _92
REMARK   39  A    between atoms: _92  and  _93
REMARK   40  A    between atoms: _96  and  _98
REMARK   41  A    between atoms: _98  and  _99
REMARK   42  A    between atoms: _98  and  _101
REMARK   43  A    between atoms: _101  and  _102
REMARK   44  A    between atoms: _105  and  _107
REMARK   45  A    between atoms: _107  and  _108
REMARK   46  A    between atoms: _107  and  _110
REMARK   47  A    between atoms: _110  and  _111
REMARK   48  A    between atoms: _114  and  _116
REMARK   49  A    between atoms: _116  and  _117
REMARK   50  A    between atoms: _120  and  _122
REMARK   51  A    between atoms: _122  and  _123
REMARK   52  A    between atoms: _122  and  _125
REMARK   53  A    between atoms: _125  and  _126
REMARK   54  A    between atoms: _129  and  _131
REMARK   55  A    between atoms: _131  and  _132
REMARK   56  A    between atoms: _131  and  _134
REMARK   57  A    between atoms: _134  and  _135
REMARK   58  A    between atoms: _140  and  _141
REMARK   59  A    between atoms: _143  and  _145
REMARK   60  A    between atoms: _145  and  _146
REMARK   61  A    between atoms: _145  and  _148
REMARK   62  A    between atoms: _148  and  _149
REMARK   63  A    between atoms: _155  and  _157
REMARK   64  A    between atoms: _157  and  _158
REMARK   65  A    between atoms: _157  and  _160
REMARK   66  A    between atoms: _160  and  _161
REMARK   67  A    between atoms: _164  and  _166
REMARK   68  A    between atoms: _166  and  _167
REMARK   69  A    between atoms: _166  and  _169
REMARK   70  A    between atoms: _169  and  _170
REMARK   71  A    between atoms: _170  and  _171
REMARK   72  A    between atoms: _173  and  _175
REMARK   73  A    between atoms: _175  and  _176
REMARK   74  A    between atoms: _175  and  _178
REMARK   75  A    between atoms: _178  and  _179
REMARK   76  A    between atoms: _179  and  _180
REMARK   77  A    between atoms: _182  and  _184
REMARK   78  A    between atoms: _184  and  _185
REMARK   79  A    between atoms: _184  and  _187
REMARK   80  A    between atoms: _190  and  _192
REMARK   81  A    between atoms: _192  and  _193
REMARK   82  A    between atoms: _195  and  _197
REMARK   83  A    between atoms: _197  and  _198
REMARK   84  A    between atoms: _197  and  _200
REMARK   85  A    between atoms: _200  and  _201
REMARK   86  A    between atoms: _201  and  _202
REMARK   87  A    between atoms: _207  and  _209
REMARK   88  A    between atoms: _209  and  _210
REMARK   89  A    between atoms: _209  and  _212
REMARK   90  A    between atoms: _212  and  _213
REMARK   91  A    between atoms: _216  and  _218
REMARK   92  A    between atoms: _218  and  _219
REMARK   93  A    between atoms: _221  and  _223
REMARK   94  A    between atoms: _223  and  _224
REMARK   95  A    between atoms: _223  and  _226
REMARK   96  A    between atoms: _226  and  _227
REMARK   97  A    between atoms: _233  and  _235
REMARK   98  A    between atoms: _235  and  _236
REMARK   99  A    between atoms: _235  and  _238
REMARK  100  A    between atoms: _238  and  _239
REMARK  101  A    between atoms: _244  and  _245
REMARK  102  A    between atoms: _247  and  _249
REMARK  103  A    between atoms: _249  and  _250
REMARK  104  A    between atoms: _249  and  _252
REMARK  105  A    between atoms: _255  and  _257
REMARK  106  A    between atoms: _257  and  _258
REMARK  107  A    between atoms: _261  and  _263
REMARK  108  A    between atoms: _263  and  _264
REMARK  109  A    between atoms: _263  and  _266
REMARK  110  A    between atoms: _266  and  _267
REMARK                            x       y       z     vdW  Elec       q    Type
REMARK                         _______ _______ _______ _____ _____    ______ ____
ROOT
ATOM      1  CA  VAL A   1       2.560  22.295  38.166  0.00  0.00    +0.133 C 
ENDROOT
BRANCH   1   2
ATOM      2  CB  VAL A   1       3.679  22.784  39.069  0.00  0.00    +0.023 C 
ATOM      3  CG2 VAL A   1       3.585  22.098  40.434  0.00  0.00    +0.002 C 
ATOM      4  CG1 VAL A   1       5.047  22.458  38.416  0.00  0.00    +0.002 C 
ENDBRANCH   1   2
BRANCH   1   5
ATOM      5  N   VAL A   1       2.412  23.072  36.930  0.00  0.00    -0.239 NA
ATOM      6  H   VAL A   1       2.983  23.932  36.803  0.00  0.00    +0.142 HD
ENDBRANCH   1   5
BRANCH   1   7
ATOM      7  C   VAL A   1       1.242  22.173  38.965  0.00  0.00    +0.224 C 
ATOM      8  O   VAL A   1       0.905  21.066  39.363  0.00  0.00    -0.287 OA
ENDBRANCH   1   7
TORSDOF 3
REMARK  Name = ../refined-set-2016/4lkq/4lkq_pocket.pdb
REMARK  110 active torsions:
REMARK  status: ('A' for Active; 'I' for Inactive)
REMARK    1  A    between atoms: _1  and  _3
REMARK    2  A    between atoms: _3  and  _4
REMARK    3  A    between atoms: _3  and  _6
REMARK    4  A    between atoms: _6  and  _7
REMARK    5  A    between atoms: _12  and  _13
REMARK    6  A    between atoms: _15  and  _17
REMARK    7  A    between atoms: _17  and  _18
REMARK    8  A    between atoms: _17  and  _20
REMARK    9  A    between atoms: _20  and  _21
REMARK   10  A    between atoms: _26  and  _28
REMARK   11  A    between atoms: _28  and  _29
REMARK   12  A    between atoms: _28  and  _31
REMARK   13  A    between atoms: _31  and  _32
REMARK   14  A    between atoms: _37  and  _39
REMARK   15  A    between atoms: _39  and  _40
REMARK   16  A    between atoms: _39  and  _42
REMARK   17  A    between atoms: _42  and  _43
REMARK   18  A    between atoms: _46  and  _48
REMARK   19  A    between atoms: _48  and  _49
REMARK   20  A    between atoms: _48  and  _51
REMARK   21  A    between atoms: _51  and  _52
REMARK   22  A    between atoms: _55  and  _57
REMARK   23  A    between atoms: _57  and  _58
REMARK   24  A    between atoms: _57  and  _60
REMARK   25  A    between atoms: _60  and  _61
REMARK   26  A    between atoms: _64  and  _66
REMARK   27  A    between atoms: _66  and  _67
REMARK   28  A    between atoms: _66  and  _69
REMARK   29  A    between atoms: _71  and  _73
REMARK   30  A    between atoms: _73  and  _74
REMARK   31  A    between atoms: _73  and  _76
REMARK   32  A    between atoms: _76  and  _77
REMARK   33  A    between atoms: _79  and  _81
REMARK   34  A    between atoms: _81  and  _82
REMARK   35  A    between atoms: _81  and  _84
REMARK   36  A    between atoms: _87  and  _89
REMARK   37  A    between atoms: _89  and  _90
REMARK   38  A    between atoms: _89  and  _92
REMARK   39  A    between atoms: _92  and  _93
REMARK   40  A    between atoms: _96  and  _98
REMARK   41  A    between atoms: _98  and  _99
REMARK   42  A    between atoms: _98  and  _101
REMARK   43  A    between atoms: _101  and  _102
REMARK   44  A    between atoms: _105  and  _107
REMARK   45  A    between atoms: _107  and  _108
REMARK   46  A    between atoms: _107  and  _110
REMARK   47  A    between atoms: _110  and  _111
REMARK   48  A    between atoms: _114  and  _116
REMARK   49  A    between atoms: _116  and  _117
REMARK   50  A    between atoms: _120  and  _122
REMARK   51  A    between atoms: _122  and  _123
REMARK   52  A    between atoms: _122  and  _125
REMARK   53  A    between atoms: _125  and  _126
REMARK   54  A    between atoms: _129  and  _131
REMARK   55  A    between atoms: _131  and  _132
REMARK   56  A    between atoms: _131  and  _134
REMARK   57  A    between atoms: _134  and  _135
REMARK   58  A    between atoms: _140  and  _141
REMARK   59  A    between atoms: _143  and  _145
REMARK   60  A    between atoms: _145  and  _146
REMARK   61  A    between atoms: _145  and  _148
REMARK   62  A    between atoms: _148  and  _149
REMARK   63  A    between atoms: _155  and  _157
REMARK   64  A    between atoms: _157  and  _158
REMARK   65  A    between atoms: _157  and  _160
REMARK   66  A    between atoms: _160  and  _161
REMARK   67  A    between atoms: _164  and  _166
REMARK   68  A    between atoms: _166  and  _167
REMARK   69  A    between atoms: _166  and  _169
REMARK   70  A    between atoms: _169  and  _170
REMARK   71  A    between atoms: _170  and  _171
REMARK   72  A    between atoms: _173  and  _175
REMARK   73  A    between atoms: _175  and  _176
REMARK   74  A    between atoms: _175  and  _178
REMARK   75  A    between atoms: _178  and  _179
REMARK   76  A    between atoms: _179  and  _180
REMARK   77  A    between atoms: _182  and  _184
REMARK   78  A    between atoms: _184  and  _185
REMARK   79  A    between atoms: _184  and  _187
REMARK   80  A    between atoms: _190  and  _192
REMARK   81  A    between atoms: _192  and  _193
REMARK   82  A    between atoms: _195  and  _197
REMARK   83  A    between atoms: _197  and  _198
REMARK   84  A    between atoms: _197  and  _200
REMARK   85  A    between atoms: _200  and  _201
REMARK   86  A    between atoms: _201  and  _202
REMARK   87  A    between atoms: _207  and  _209
REMARK   88  A    between atoms: _209  and  _210
REMARK   89  A    between atoms: _209  and  _212
REMARK   90  A    between atoms: _212  and  _213
REMARK   91  A    between atoms: _216  and  _218
REMARK   92  A    between atoms: _218  and  _219
REMARK   93  A    between atoms: _221  and  _223
REMARK   94  A    between atoms: _223  and  _224
REMARK   95  A    between atoms: _223  and  _226
REMARK   96  A    between atoms: _226  and  _227
REMARK   97  A    between atoms: _233  and  _235
REMARK   98  A    between atoms: _235  and  _236
REMARK   99  A    between atoms: _235  and  _238
REMARK  100  A    between atoms: _238  and  _239
REMARK  101  A    between atoms: _244  and  _245
REMARK  102  A    between atoms: _247  and  _249
REMARK  103  A    between atoms: _249  and  _250
REMARK  104  A    between atoms: _249  and  _252
REMARK  105  A    between atoms: _255  and  _257
REMARK  106  A    between atoms: _257  and  _258
REMARK  107  A    between atoms: _261  and  _263
REMARK  108  A    between atoms: _263  and  _264
REMARK  109  A    between atoms: _263  and  _266
REMARK  110  A    between atoms: _266  and  _267
REMARK                            x       y       z     vdW  Elec       q    Type
REMARK                         _______ _______ _______ _____ _____    ______ ____
ROOT
ATOM      1  CA  GLY A   4      -4.122  15.346  38.424  0.00  0.00    +0.176 C 
ENDROOT
BRANCH   1   2
ATOM      2  C   GLY A   4      -3.640  14.210  39.304  0.00  0.00    +0.243 C 
ATOM      3  N   PHE A   5      -2.506  14.429  39.976  0.00  0.00    -0.297 N 
ATOM      4  H   PHE A   5      -2.019  15.341  39.860  0.00  0.00    +0.150 HD
ATOM      5  O   GLY A   4      -4.289  13.156  39.382  0.00  0.00    -0.273 OA
BRANCH   3   6
ATOM      6  CA  PHE A   5      -1.934  13.435  40.862  0.00  0.00    +0.153 C 
BRANCH   6   7
ATOM      7  C   PHE A   5      -2.843  13.101  42.042  0.00  0.00    +0.241 C 
ATOM      8  N   TYR A   6      -3.458  14.125  42.629  0.00  0.00    -0.298 N 
ATOM      9  H   TYR A   6      -3.314  15.089  42.265  0.00  0.00    +0.150 HD
ATOM     10  O   PHE A   5      -3.038  11.927  42.365  0.00  0.00    -0.273 OA
BRANCH   8  11
ATOM     11  CA  TYR A   6      -4.331  13.910  43.777  0.00  0.00    +0.141 C 
BRANCH  11  12
ATOM     12  C   TYR A   6      -5.578  13.165  43.337  0.00  0.00    +0.227 C 
ATOM     13  O   TYR A   6      -6.012  12.229  44.019  0.00  0.00    -0.286 OA
ENDBRANCH  11  12
BRANCH  11  14
ATOM     14  CB  TYR A   6      -4.733  15.226  44.440  0.00  0.00    +0.054 C 
BRANCH  14  15
ATOM     15  CG  TYR A   6      -3.738  15.766  45.451  0.00  0.00    -0.020 A 
ATOM     16  CD2 TYR A   6      -4.053  15.796  46.813  0.00  0.00    -0.001 A 
ATOM     17  CE2 TYR A   6      -3.160  16.310  47.767  0.00  0.00    +0.036 A 
ATOM     18  CZ  TYR A   6      -1.937  16.796  47.335  0.00  0.00    +0.134 A 
ATOM     19  CE1 TYR A   6      -1.601  16.764  45.996  0.00  0.00    +0.036 A 
ATOM     20  CD1 TYR A   6      -2.502  16.256  45.051  0.00  0.00    -0.001 A 
BRANCH  18  21
ATOM     21  OH  TYR A   6      -1.028  17.299  48.248  0.00  0.00    -0.506 OA
ATOM     22  HH  TYR A   6      -0.215  17.600  47.771  0.00  0.00    +0.292 HD
ENDBRANCH  18  21
ENDBRANCH  14  15
ENDBRANCH  11  14
ENDBRANCH   8  11
ENDBRANCH   6   7
BRANCH   6  23
ATOM     23  CB  PHE A   5      -0.543  13.869  41.360  0.00  0.00    +0.055 C 
BRANCH  23  24
ATOM     24  CG  PHE A   5       0.123  12.826  42.185  0.00  0.00    -0.020 A 
ATOM     25  CD2 PHE A   5       0.117  12.921  43.584  0.00  0.00    -0.004 A 
ATOM     26  CE2 PHE A   5       0.702  11.912  44.359  0.00  0.00    -0.000 A 
ATOM     27  CZ  PHE A   5       1.295  10.804  43.730  0.00  0.00    -0.000 A 
ATOM     28  CE1 PHE A   5       1.305  10.700  42.342  0.00  0.00    -0.000 A 
ATOM     29  CD1 PHE A   5       0.716  11.709  41.574  0.00  0.00    -0.004 A 
ENDBRANCH  23  24
ENDBRANCH   6  23
ENDBRANCH   3   6
ENDBRANCH   1   2
BRANCH   1  32
ATOM     30  C   LEU A   3      -4.744  16.866  40.245  0.00  0.00    +0.241 C 
ATOM     31  O   LEU A   3      -5.486  16.023  40.803  0.00  0.00    -0.273 OA
ATOM     32  N   GLY A   4      -4.077  16.622  39.110  0.00  0.00    -0.295 N 
ATOM     33  H   GLY A   4      -3.499  17.384  38.701  0.00  0.00    +0.150 HD
BRANCH  30  34
ATOM     34  CA  LEU A   3      -4.565  18.267  40.846  0.00  0.00    +0.149 C 
BRANCH  34  37
ATOM     35  C   GLN A   2      -2.255  17.868  41.409  0.00  0.00    +0.241 C 
ATOM     36  O   GLN A   2      -2.556  16.832  42.007  0.00  0.00    -0.273 OA
ATOM     37  N   LEU A   3      -3.150  18.674  40.857  0.00  0.00    -0.297 N 
ATOM     38  H   LEU A   3      -2.858  19.580  40.438  0.00  0.00    +0.150 HD
BRANCH  35  39
ATOM     39  CA  GLN A   2      -0.809  18.277  41.283  0.00  0.00    +0.149 C 
BRANCH  39  41
ATOM     40  C   GLY A   1      -0.598  17.866  38.891  0.00  0.00    +0.240 C 
ATOM     41  N   GLN A   2      -0.554  18.717  39.920  0.00  0.00    -0.297 N 
ATOM     42  H   GLN A   2      -0.332  19.717  39.742  0.00  0.00    +0.150 HD
ATOM     43  O   GLY A   1      -0.766  16.662  39.022  0.00  0.00    -0.274 OA
BRANCH  40  44
ATOM     44  CA  GLY A   1      -0.377  18.459  37.499  0.00  0.00    +0.169 C 
BRANCH  44  45
ATOM     45  N   GLY A   1      -0.986  19.777  37.343  0.00  0.00    -0.236 NA
ATOM     46  H   GLY A   1      -0.385  20.601  37.139  0.00  0.00    +0.142 HD
ENDBRANCH  44  45
ENDBRANCH  40  44
ENDBRANCH  39  41
BRANCH  39  47
ATOM     47  CB  GLN A   2      -0.499  19.379  42.264  0.00  0.00    +0.039 C 
BRANCH  47  48
ATOM     48  CG  GLN A   2       0.999  19.565  42.475  0.00  0.00    +0.087 C 
BRANCH  48  49
ATOM     49  CD  GLN A   2       1.659  18.316  43.016  0.00  0.00    +0.219 C 
ATOM     50  NE2 GLN A   2       1.499  18.084  44.301  0.00  0.00    -0.329 N 
ATOM     51 HE21 GLN A   2       0.958  18.752  44.887  0.00  0.00    +0.145 HD
ATOM     52 HE22 GLN A   2       1.914  17.233  44.731  0.00  0.00    +0.145 HD
ATOM     53  OE1 GLN A   2       2.294  17.551  42.280  0.00  0.00    -0.275 OA
ENDBRANCH  48  49
ENDBRANCH  47  48
ENDBRANCH  39  47
ENDBRANCH  35  39
ENDBRANCH  34  37
BRANCH  34  54
ATOM     54  CB  LEU A   3      -5.428  19.265  40.063  0.00  0.00    +0.029 C 
BRANCH  54  55
ATOM     55  CG  LEU A   3      -6.968  19.185  40.099  0.00  0.00    +0.002 C 
ATOM     56  CD2 LEU A   3      -7.502  19.412  41.487  0.00  0.00    +0.000 C 
ATOM     57  CD1 LEU A   3      -7.578  20.225  39.164  0.00  0.00    +0.000 C 
ENDBRANCH  54  55
ENDBRANCH  34  54
ENDBRANCH  30  34
ENDBRANCH   1  32
TORSDOF 22
REMARK  Name = ../refined-set-2016/4lkq/4lkq_pocket.pdb
REMARK  110 active torsions:
REMARK  status: ('A' for Active; 'I' for Inactive)
REMARK    1  A    between atoms: _1  and  _3
REMARK    2  A    between atoms: _3  and  _4
REMARK    3  A    between atoms: _3  and  _6
REMARK    4  A    between atoms: _6  and  _7
REMARK    5  A    between atoms: _12  and  _13
REMARK    6  A    between atoms: _15  and  _17
REMARK    7  A    between atoms: _17  and  _18
REMARK    8  A    between atoms: _17  and  _20
REMARK    9  A    between atoms: _20  and  _21
REMARK   10  A    between atoms: _26  and  _28
REMARK   11  A    between atoms: _28  and  _29
REMARK   12  A    between atoms: _28  and  _31
REMARK   13  A    between atoms: _31  and  _32
REMARK   14  A    between atoms: _37  and  _39
REMARK   15  A    between atoms: _39  and  _40
REMARK   16  A    between atoms: _39  and  _42
REMARK   17  A    between atoms: _42  and  _43
REMARK   18  A    between atoms: _46  and  _48
REMARK   19  A    between atoms: _48  and  _49
REMARK   20  A    between atoms: _48  and  _51
REMARK   21  A    between atoms: _51  and  _52
REMARK   22  A    between atoms: _55  and  _57
REMARK   23  A    between atoms: _57  and  _58
REMARK   24  A    between atoms: _57  and  _60
REMARK   25  A    between atoms: _60  and  _61
REMARK   26  A    between atoms: _64  and  _66
REMARK   27  A    between atoms: _66  and  _67
REMARK   28  A    between atoms: _66  and  _69
REMARK   29  A    between atoms: _71  and  _73
REMARK   30  A    between atoms: _73  and  _74
REMARK   31  A    between atoms: _73  and  _76
REMARK   32  A    between atoms: _76  and  _77
REMARK   33  A    between atoms: _79  and  _81
REMARK   34  A    between atoms: _81  and  _82
REMARK   35  A    between atoms: _81  and  _84
REMARK   36  A    between atoms: _87  and  _89
REMARK   37  A    between atoms: _89  and  _90
REMARK   38  A    between atoms: _89  and  _92
REMARK   39  A    between atoms: _92  and  _93
REMARK   40  A    between atoms: _96  and  _98
REMARK   41  A    between atoms: _98  and  _99
REMARK   42  A    between atoms: _98  and  _101
REMARK   43  A    between atoms: _101  and  _102
REMARK   44  A    between atoms: _105  and  _107
REMARK   45  A    between atoms: _107  and  _108
REMARK   46  A    between atoms: _107  and  _110
REMARK   47  A    between atoms: _110  and  _111
REMARK   48  A    between atoms: _114  and  _116
REMARK   49  A    between atoms: _116  and  _117
REMARK   50  A    between atoms: _120  and  _122
REMARK   51  A    between atoms: _122  and  _123
REMARK   52  A    between atoms: _122  and  _125
REMARK   53  A    between atoms: _125  and  _126
REMARK   54  A    between atoms: _129  and  _131
REMARK   55  A    between atoms: _131  and  _132
REMARK   56  A    between atoms: _131  and  _134
REMARK   57  A    between atoms: _134  and  _135
REMARK   58  A    between atoms: _140  and  _141
REMARK   59  A    between atoms: _143  and  _145
REMARK   60  A    between atoms: _145  and  _146
REMARK   61  A    between atoms: _145  and  _148
REMARK   62  A    between atoms: _148  and  _149
REMARK   63  A    between atoms: _155  and  _157
REMARK   64  A    between atoms: _157  and  _158
REMARK   65  A    between atoms: _157  and  _160
REMARK   66  A    between atoms: _160  and  _161
REMARK   67  A    between atoms: _164  and  _166
REMARK   68  A    between atoms: _166  and  _167
REMARK   69  A    between atoms: _166  and  _169
REMARK   70  A    between atoms: _169  and  _170
REMARK   71  A    between atoms: _170  and  _171
REMARK   72  A    between atoms: _173  and  _175
REMARK   73  A    between atoms: _175  and  _176
REMARK   74  A    between atoms: _175  and  _178
REMARK   75  A    between atoms: _178  and  _179
REMARK   76  A    between atoms: _179  and  _180
REMARK   77  A    between atoms: _182  and  _184
REMARK   78  A    between atoms: _184  and  _185
REMARK   79  A    between atoms: _184  and  _187
REMARK   80  A    between atoms: _190  and  _192
REMARK   81  A    between atoms: _192  and  _193
REMARK   82  A    between atoms: _195  and  _197
REMARK   83  A    between atoms: _197  and  _198
REMARK   84  A    between atoms: _197  and  _200
REMARK   85  A    between atoms: _200  and  _201
REMARK   86  A    between atoms: _201  and  _202
REMARK   87  A    between atoms: _207  and  _209
REMARK   88  A    between atoms: _209  and  _210
REMARK   89  A    between atoms: _209  and  _212
REMARK   90  A    between atoms: _212  and  _213
REMARK   91  A    between atoms: _216  and  _218
REMARK   92  A    between atoms: _218  and  _219
REMARK   93  A    between atoms: _221  and  _223
REMARK   94  A    between atoms: _223  and  _224
REMARK   95  A    between atoms: _223  and  _226
REMARK   96  A    between atoms: _226  and  _227
REMARK   97  A    between atoms: _233  and  _235
REMARK   98  A    between atoms: _235  and  _236
REMARK   99  A    between atoms: _235  and  _238
REMARK  100  A    between atoms: _238  and  _239
REMARK  101  A    between atoms: _244  and  _245
REMARK  102  A    between atoms: _247  and  _249
REMARK  103  A    between atoms: _249  and  _250
REMARK  104  A    between atoms: _249  and  _252
REMARK  105  A    between atoms: _255  and  _257
REMARK  106  A    between atoms: _257  and  _258
REMARK  107  A    between atoms: _261  and  _263
REMARK  108  A    between atoms: _263  and  _264
REMARK  109  A    between atoms: _263  and  _266
REMARK  110  A    between atoms: _266  and  _267
REMARK                            x       y       z     vdW  Elec       q    Type
REMARK                         _______ _______ _______ _____ _____    ______ ____
ROOT
ATOM      1  C   VAL A   1      -3.795   8.795  44.276  0.00  0.00    +0.238 C 
ATOM      2  O   VAL A   1      -4.260   7.841  44.937  0.00  0.00    -0.274 OA
ATOM      3  N   ALA A   2      -3.598   9.997  44.820  0.00  0.00    -0.298 N 
ATOM      4  H   ALA A   2      -3.443  10.828  44.215  0.00  0.00    +0.150 HD
ENDROOT
BRANCH   3   5
ATOM      5  CA  ALA A   2      -3.602  10.137  46.307  0.00  0.00    +0.137 C 
ATOM      6  CB  ALA A   2      -3.055  11.459  46.713  0.00  0.00    +0.030 C 
BRANCH   5   7
ATOM      7  C   ALA A   2      -4.997   9.956  46.928  0.00  0.00    +0.227 C 
ATOM      8  O   ALA A   2      -5.175   9.165  47.851  0.00  0.00    -0.286 OA
ENDBRANCH   5   7
ENDBRANCH   3   5
BRANCH   1   9
ATOM      9  CA  VAL A   1      -3.454   8.594  42.785  0.00  0.00    +0.145 C 
BRANCH   9  10
ATOM     10  CB  VAL A   1      -1.911   8.794  42.542  0.00  0.00    +0.025 C 
ATOM     11  CG2 VAL A   1      -1.150   7.842  43.421  0.00  0.00    +0.002 C 
ATOM     12  CG1 VAL A   1      -1.521   8.553  41.038  0.00  0.00    +0.002 C 
ENDBRANCH   9  10
BRANCH   9  13
ATOM     13  N   VAL A   1      -4.287   9.417  41.939  0.00  0.00    -0.238 NA
ATOM     14  H   VAL A   1      -4.284  10.446  42.093  0.00  0.00    +0.142 HD
ENDBRANCH   9  13
ENDBRANCH   1   9
TORSDOF 5
REMARK  Name = ../refined-set-2016/4lkq/4lkq_pocket.pdb
REMARK  110 active torsions:
REMARK  status: ('A' for Active; 'I' for Inactive)
REMARK    1  A    between atoms: _1  and  _3
REMARK    2  A    between atoms: _3  and  _4
REMARK    3  A    between atoms: _3  and  _6
REMARK    4  A    between atoms: _6  and  _7
REMARK    5  A    between atoms: _12  and  _13
REMARK    6  A    between atoms: _15  and  _17
REMARK    7  A    between atoms: _17  and  _18
REMARK    8  A    between atoms: _17  and  _20
REMARK    9  A    between atoms: _20  and  _21
REMARK   10  A    between atoms: _26  and  _28
REMARK   11  A    between atoms: _28  and  _29
REMARK   12  A    between atoms: _28  and  _31
REMARK   13  A    between atoms: _31  and  _32
REMARK   14  A    between atoms: _37  and  _39
REMARK   15  A    between atoms: _39  and  _40
REMARK   16  A    between atoms: _39  and  _42
REMARK   17  A    between atoms: _42  and  _43
REMARK   18  A    between atoms: _46  and  _48
REMARK   19  A    between atoms: _48  and  _49
REMARK   20  A    between atoms: _48  and  _51
REMARK   21  A    between atoms: _51  and  _52
REMARK   22  A    between atoms: _55  and  _57
REMARK   23  A    between atoms: _57  and  _58
REMARK   24  A    between atoms: _57  and  _60
REMARK   25  A    between atoms: _60  and  _61
REMARK   26  A    between atoms: _64  and  _66
REMARK   27  A    between atoms: _66  and  _67
REMARK   28  A    between atoms: _66  and  _69
REMARK   29  A    between atoms: _71  and  _73
REMARK   30  A    between atoms: _73  and  _74
REMARK   31  A    between atoms: _73  and  _76
REMARK   32  A    between atoms: _76  and  _77
REMARK   33  A    between atoms: _79  and  _81
REMARK   34  A    between atoms: _81  and  _82
REMARK   35  A    between atoms: _81  and  _84
REMARK   36  A    between atoms: _87  and  _89
REMARK   37  A    between atoms: _89  and  _90
REMARK   38  A    between atoms: _89  and  _92
REMARK   39  A    between atoms: _92  and  _93
REMARK   40  A    between atoms: _96  and  _98
REMARK   41  A    between atoms: _98  and  _99
REMARK   42  A    between atoms: _98  and  _101
REMARK   43  A    between atoms: _101  and  _102
REMARK   44  A    between atoms: _105  and  _107
REMARK   45  A    between atoms: _107  and  _108
REMARK   46  A    between atoms: _107  and  _110
REMARK   47  A    between atoms: _110  and  _111
REMARK   48  A    between atoms: _114  and  _116
REMARK   49  A    between atoms: _116  and  _117
REMARK   50  A    between atoms: _120  and  _122
REMARK   51  A    between atoms: _122  and  _123
REMARK   52  A    between atoms: _122  and  _125
REMARK   53  A    between atoms: _125  and  _126
REMARK   54  A    between atoms: _129  and  _131
REMARK   55  A    between atoms: _131  and  _132
REMARK   56  A    between atoms: _131  and  _134
REMARK   57  A    between atoms: _134  and  _135
REMARK   58  A    between atoms: _140  and  _141
REMARK   59  A    between atoms: _143  and  _145
REMARK   60  A    between atoms: _145  and  _146
REMARK   61  A    between atoms: _145  and  _148
REMARK   62  A    between atoms: _148  and  _149
REMARK   63  A    between atoms: _155  and  _157
REMARK   64  A    between atoms: _157  and  _158
REMARK   65  A    between atoms: _157  and  _160
REMARK   66  A    between atoms: _160  and  _161
REMARK   67  A    between atoms: _164  and  _166
REMARK   68  A    between atoms: _166  and  _167
REMARK   69  A    between atoms: _166  and  _169
REMARK   70  A    between atoms: _169  and  _170
REMARK   71  A    between atoms: _170  and  _171
REMARK   72  A    between atoms: _173  and  _175
REMARK   73  A    between atoms: _175  and  _176
REMARK   74  A    between atoms: _175  and  _178
REMARK   75  A    between atoms: _178  and  _179
REMARK   76  A    between atoms: _179  and  _180
REMARK   77  A    between atoms: _182  and  _184
REMARK   78  A    between atoms: _184  and  _185
REMARK   79  A    between atoms: _184  and  _187
REMARK   80  A    between atoms: _190  and  _192
REMARK   81  A    between atoms: _192  and  _193
REMARK   82  A    between atoms: _195  and  _197
REMARK   83  A    between atoms: _197  and  _198
REMARK   84  A    between atoms: _197  and  _200
REMARK   85  A    between atoms: _200  and  _201
REMARK   86  A    between atoms: _201  and  _202
REMARK   87  A    between atoms: _207  and  _209
REMARK   88  A    between atoms: _209  and  _210
REMARK   89  A    between atoms: _209  and  _212
REMARK   90  A    between atoms: _212  and  _213
REMARK   91  A    between atoms: _216  and  _218
REMARK   92  A    between atoms: _218  and  _219
REMARK   93  A    between atoms: _221  and  _223
REMARK   94  A    between atoms: _223  and  _224
REMARK   95  A    between atoms: _223  and  _226
REMARK   96  A    between atoms: _226  and  _227
REMARK   97  A    between atoms: _233  and  _235
REMARK   98  A    between atoms: _235  and  _236
REMARK   99  A    between atoms: _235  and  _238
REMARK  100  A    between atoms: _238  and  _239
REMARK  101  A    between atoms: _244  and  _245
REMARK  102  A    between atoms: _247  and  _249
REMARK  103  A    between atoms: _249  and  _250
REMARK  104  A    between atoms: _249  and  _252
REMARK  105  A    between atoms: _255  and  _257
REMARK  106  A    between atoms: _257  and  _258
REMARK  107  A    between atoms: _261  and  _263
REMARK  108  A    between atoms: _263  and  _264
REMARK  109  A    between atoms: _263  and  _266
REMARK  110  A    between atoms: _266  and  _267
REMARK                            x       y       z     vdW  Elec       q    Type
REMARK                         _______ _______ _______ _____ _____    ______ ____
ROOT
ATOM      1  CG  TRP A   1      -2.288  21.294  45.130  0.00  0.00    -0.002 A 
ATOM      2  CD1 TRP A   1      -2.019  20.288  46.010  0.00  0.00    +0.068 A 
ATOM      3  NE1 TRP A   1      -0.654  20.265  46.302  0.00  0.00    -0.352 N 
ATOM      4  HE1 TRP A   1      -0.187  19.617  46.967  0.00  0.00    +0.166 HD
ATOM      5  CE2 TRP A   1      -0.033  21.239  45.566  0.00  0.00    +0.056 A 
ATOM      6  CZ2 TRP A   1       1.327  21.598  45.513  0.00  0.00    +0.017 A 
ATOM      7  CH2 TRP A   1       1.670  22.651  44.692  0.00  0.00    +0.001 A 
ATOM      8  CZ3 TRP A   1       0.703  23.336  43.934  0.00  0.00    +0.000 A 
ATOM      9  CE3 TRP A   1      -0.649  22.983  44.000  0.00  0.00    +0.001 A 
ATOM     10  CD2 TRP A   1      -1.026  21.912  44.820  0.00  0.00    +0.013 A 
ENDROOT
BRANCH   1  11
ATOM     11  CB  TRP A   1      -3.650  21.705  44.574  0.00  0.00    +0.053 C 
BRANCH  11  12
ATOM     12  CA  TRP A   1      -4.074  23.081  45.124  0.00  0.00    +0.137 C 
BRANCH  12  13
ATOM     13  N   TRP A   1      -4.521  23.016  46.523  0.00  0.00    -0.239 NA
ATOM     14  H   TRP A   1      -4.653  22.092  46.983  0.00  0.00    +0.142 HD
ENDBRANCH  12  13
BRANCH  12  15
ATOM     15  C   TRP A   1      -5.142  23.734  44.268  0.00  0.00    +0.224 C 
ATOM     16  O   TRP A   1      -4.838  24.532  43.384  0.00  0.00    -0.287 OA
ENDBRANCH  12  15
ENDBRANCH  11  12
ENDBRANCH   1  11
TORSDOF 4
REMARK  Name = ../refined-set-2016/4lkq/4lkq_pocket.pdb
REMARK  110 active torsions:
REMARK  status: ('A' for Active; 'I' for Inactive)
REMARK    1  A    between atoms: _1  and  _3
REMARK    2  A    between atoms: _3  and  _4
REMARK    3  A    between atoms: _3  and  _6
REMARK    4  A    between atoms: _6  and  _7
REMARK    5  A    between atoms: _12  and  _13
REMARK    6  A    between atoms: _15  and  _17
REMARK    7  A    between atoms: _17  and  _18
REMARK    8  A    between atoms: _17  and  _20
REMARK    9  A    between atoms: _20  and  _21
REMARK   10  A    between atoms: _26  and  _28
REMARK   11  A    between atoms: _28  and  _29
REMARK   12  A    between atoms: _28  and  _31
REMARK   13  A    between atoms: _31  and  _32
REMARK   14  A    between atoms: _37  and  _39
REMARK   15  A    between atoms: _39  and  _40
REMARK   16  A    between atoms: _39  and  _42
REMARK   17  A    between atoms: _42  and  _43
REMARK   18  A    between atoms: _46  and  _48
REMARK   19  A    between atoms: _48  and  _49
REMARK   20  A    between atoms: _48  and  _51
REMARK   21  A    between atoms: _51  and  _52
REMARK   22  A    between atoms: _55  and  _57
REMARK   23  A    between atoms: _57  and  _58
REMARK   24  A    between atoms: _57  and  _60
REMARK   25  A    between atoms: _60  and  _61
REMARK   26  A    between atoms: _64  and  _66
REMARK   27  A    between atoms: _66  and  _67
REMARK   28  A    between atoms: _66  and  _69
REMARK   29  A    between atoms: _71  and  _73
REMARK   30  A    between atoms: _73  and  _74
REMARK   31  A    between atoms: _73  and  _76
REMARK   32  A    between atoms: _76  and  _77
REMARK   33  A    between atoms: _79  and  _81
REMARK   34  A    between atoms: _81  and  _82
REMARK   35  A    between atoms: _81  and  _84
REMARK   36  A    between atoms: _87  and  _89
REMARK   37  A    between atoms: _89  and  _90
REMARK   38  A    between atoms: _89  and  _92
REMARK   39  A    between atoms: _92  and  _93
REMARK   40  A    between atoms: _96  and  _98
REMARK   41  A    between atoms: _98  and  _99
REMARK   42  A    between atoms: _98  and  _101
REMARK   43  A    between atoms: _101  and  _102
REMARK   44  A    between atoms: _105  and  _107
REMARK   45  A    between atoms: _107  and  _108
REMARK   46  A    between atoms: _107  and  _110
REMARK   47  A    between atoms: _110  and  _111
REMARK   48  A    between atoms: _114  and  _116
REMARK   49  A    between atoms: _116  and  _117
REMARK   50  A    between atoms: _120  and  _122
REMARK   51  A    between atoms: _122  and  _123
REMARK   52  A    between atoms: _122  and  _125
REMARK   53  A    between atoms: _125  and  _126
REMARK   54  A    between atoms: _129  and  _131
REMARK   55  A    between atoms: _131  and  _132
REMARK   56  A    between atoms: _131  and  _134
REMARK   57  A    between atoms: _134  and  _135
REMARK   58  A    between atoms: _140  and  _141
REMARK   59  A    between atoms: _143  and  _145
REMARK   60  A    between atoms: _145  and  _146
REMARK   61  A    between atoms: _145  and  _148
REMARK   62  A    between atoms: _148  and  _149
REMARK   63  A    between atoms: _155  and  _157
REMARK   64  A    between atoms: _157  and  _158
REMARK   65  A    between atoms: _157  and  _160
REMARK   66  A    between atoms: _160  and  _161
REMARK   67  A    between atoms: _164  and  _166
REMARK   68  A    between atoms: _166  and  _167
REMARK   69  A    between atoms: _166  and  _169
REMARK   70  A    between atoms: _169  and  _170
REMARK   71  A    between atoms: _170  and  _171
REMARK   72  A    between atoms: _173  and  _175
REMARK   73  A    between atoms: _175  and  _176
REMARK   74  A    between atoms: _175  and  _178
REMARK   75  A    between atoms: _178  and  _179
REMARK   76  A    between atoms: _179  and  _180
REMARK   77  A    between atoms: _182  and  _184
REMARK   78  A    between atoms: _184  and  _185
REMARK   79  A    between atoms: _184  and  _187
REMARK   80  A    between atoms: _190  and  _192
REMARK   81  A    between atoms: _192  and  _193
REMARK   82  A    between atoms: _195  and  _197
REMARK   83  A    between atoms: _197  and  _198
REMARK   84  A    between atoms: _197  and  _200
REMARK   85  A    between atoms: _200  and  _201
REMARK   86  A    between atoms: _201  and  _202
REMARK   87  A    between atoms: _207  and  _209
REMARK   88  A    between atoms: _209  and  _210
REMARK   89  A    between atoms: _209  and  _212
REMARK   90  A    between atoms: _212  and  _213
REMARK   91  A    between atoms: _216  and  _218
REMARK   92  A    between atoms: _218  and  _219
REMARK   93  A    between atoms: _221  and  _223
REMARK   94  A    between atoms: _223  and  _224
REMARK   95  A    between atoms: _223  and  _226
REMARK   96  A    between atoms: _226  and  _227
REMARK   97  A    between atoms: _233  and  _235
REMARK   98  A    between atoms: _235  and  _236
REMARK   99  A    between atoms: _235  and  _238
REMARK  100  A    between atoms: _238  and  _239
REMARK  101  A    between atoms: _244  and  _245
REMARK  102  A    between atoms: _247  and  _249
REMARK  103  A    between atoms: _249  and  _250
REMARK  104  A    between atoms: _249  and  _252
REMARK  105  A    between atoms: _255  and  _257
REMARK  106  A    between atoms: _257  and  _258
REMARK  107  A    between atoms: _261  and  _263
REMARK  108  A    between atoms: _263  and  _264
REMARK  109  A    between atoms: _263  and  _266
REMARK  110  A    between atoms: _266  and  _267
REMARK                            x       y       z     vdW  Elec       q    Type
REMARK                         _______ _______ _______ _____ _____    ______ ____
ROOT
ATOM      1  O   HOH     1       5.682  11.475  50.658  0.00  0.00    +0.000 OA
ENDROOT
TORSDOF 0
REMARK  Name = ../refined-set-2016/4lkq/4lkq_pocket.pdb
REMARK  110 active torsions:
REMARK  status: ('A' for Active; 'I' for Inactive)
REMARK    1  A    between atoms: _1  and  _3
REMARK    2  A    between atoms: _3  and  _4
REMARK    3  A    between atoms: _3  and  _6
REMARK    4  A    between atoms: _6  and  _7
REMARK    5  A    between atoms: _12  and  _13
REMARK    6  A    between atoms: _15  and  _17
REMARK    7  A    between atoms: _17  and  _18
REMARK    8  A    between atoms: _17  and  _20
REMARK    9  A    between atoms: _20  and  _21
REMARK   10  A    between atoms: _26  and  _28
REMARK   11  A    between atoms: _28  and  _29
REMARK   12  A    between atoms: _28  and  _31
REMARK   13  A    between atoms: _31  and  _32
REMARK   14  A    between atoms: _37  and  _39
REMARK   15  A    between atoms: _39  and  _40
REMARK   16  A    between atoms: _39  and  _42
REMARK   17  A    between atoms: _42  and  _43
REMARK   18  A    between atoms: _46  and  _48
REMARK   19  A    between atoms: _48  and  _49
REMARK   20  A    between atoms: _48  and  _51
REMARK   21  A    between atoms: _51  and  _52
REMARK   22  A    between atoms: _55  and  _57
REMARK   23  A    between atoms: _57  and  _58
REMARK   24  A    between atoms: _57  and  _60
REMARK   25  A    between atoms: _60  and  _61
REMARK   26  A    between atoms: _64  and  _66
REMARK   27  A    between atoms: _66  and  _67
REMARK   28  A    between atoms: _66  and  _69
REMARK   29  A    between atoms: _71  and  _73
REMARK   30  A    between atoms: _73  and  _74
REMARK   31  A    between atoms: _73  and  _76
REMARK   32  A    between atoms: _76  and  _77
REMARK   33  A    between atoms: _79  and  _81
REMARK   34  A    between atoms: _81  and  _82
REMARK   35  A    between atoms: _81  and  _84
REMARK   36  A    between atoms: _87  and  _89
REMARK   37  A    between atoms: _89  and  _90
REMARK   38  A    between atoms: _89  and  _92
REMARK   39  A    between atoms: _92  and  _93
REMARK   40  A    between atoms: _96  and  _98
REMARK   41  A    between atoms: _98  and  _99
REMARK   42  A    between atoms: _98  and  _101
REMARK   43  A    between atoms: _101  and  _102
REMARK   44  A    between atoms: _105  and  _107
REMARK   45  A    between atoms: _107  and  _108
REMARK   46  A    between atoms: _107  and  _110
REMARK   47  A    between atoms: _110  and  _111
REMARK   48  A    between atoms: _114  and  _116
REMARK   49  A    between atoms: _116  and  _117
REMARK   50  A    between atoms: _120  and  _122
REMARK   51  A    between atoms: _122  and  _123
REMARK   52  A    between atoms: _122  and  _125
REMARK   53  A    between atoms: _125  and  _126
REMARK   54  A    between atoms: _129  and  _131
REMARK   55  A    between atoms: _131  and  _132
REMARK   56  A    between atoms: _131  and  _134
REMARK   57  A    between atoms: _134  and  _135
REMARK   58  A    between atoms: _140  and  _141
REMARK   59  A    between atoms: _143  and  _145
REMARK   60  A    between atoms: _145  and  _146
REMARK   61  A    between atoms: _145  and  _148
REMARK   62  A    between atoms: _148  and  _149
REMARK   63  A    between atoms: _155  and  _157
REMARK   64  A    between atoms: _157  and  _158
REMARK   65  A    between atoms: _157  and  _160
REMARK   66  A    between atoms: _160  and  _161
REMARK   67  A    between atoms: _164  and  _166
REMARK   68  A    between atoms: _166  and  _167
REMARK   69  A    between atoms: _166  and  _169
REMARK   70  A    between atoms: _169  and  _170
REMARK   71  A    between atoms: _170  and  _171
REMARK   72  A    between atoms: _173  and  _175
REMARK   73  A    between atoms: _175  and  _176
REMARK   74  A    between atoms: _175  and  _178
REMARK   75  A    between atoms: _178  and  _179
REMARK   76  A    between atoms: _179  and  _180
REMARK   77  A    between atoms: _182  and  _184
REMARK   78  A    between atoms: _184  and  _185
REMARK   79  A    between atoms: _184  and  _187
REMARK   80  A    between atoms: _190  and  _192
REMARK   81  A    between atoms: _192  and  _193
REMARK   82  A    between atoms: _195  and  _197
REMARK   83  A    between atoms: _197  and  _198
REMARK   84  A    between atoms: _197  and  _200
REMARK   85  A    between atoms: _200  and  _201
REMARK   86  A    between atoms: _201  and  _202
REMARK   87  A    between atoms: _207  and  _209
REMARK   88  A    between atoms: _209  and  _210
REMARK   89  A    between atoms: _209  and  _212
REMARK   90  A    between atoms: _212  and  _213
REMARK   91  A    between atoms: _216  and  _218
REMARK   92  A    between atoms: _218  and  _219
REMARK   93  A    between atoms: _221  and  _223
REMARK   94  A    between atoms: _223  and  _224
REMARK   95  A    between atoms: _223  and  _226
REMARK   96  A    between atoms: _226  and  _227
REMARK   97  A    between atoms: _233  and  _235
REMARK   98  A    between atoms: _235  and  _236
REMARK   99  A    between atoms: _235  and  _238
REMARK  100  A    between atoms: _238  and  _239
REMARK  101  A    between atoms: _244  and  _245
REMARK  102  A    between atoms: _247  and  _249
REMARK  103  A    between atoms: _249  and  _250
REMARK  104  A    between atoms: _249  and  _252
REMARK  105  A    between atoms: _255  and  _257
REMARK  106  A    between atoms: _257  and  _258
REMARK  107  A    between atoms: _261  and  _263
REMARK  108  A    between atoms: _263  and  _264
REMARK  109  A    between atoms: _263  and  _266
REMARK  110  A    between atoms: _266  and  _267
REMARK                            x       y       z     vdW  Elec       q    Type
REMARK                         _______ _______ _______ _____ _____    ______ ____
ROOT
ATOM      1  O   HOH     1       8.175  12.039  51.925  0.00  0.00    +0.000 OA
ENDROOT
TORSDOF 0
REMARK  Name = ../refined-set-2016/4lkq/4lkq_pocket.pdb
REMARK  110 active torsions:
REMARK  status: ('A' for Active; 'I' for Inactive)
REMARK    1  A    between atoms: _1  and  _3
REMARK    2  A    between atoms: _3  and  _4
REMARK    3  A    between atoms: _3  and  _6
REMARK    4  A    between atoms: _6  and  _7
REMARK    5  A    between atoms: _12  and  _13
REMARK    6  A    between atoms: _15  and  _17
REMARK    7  A    between atoms: _17  and  _18
REMARK    8  A    between atoms: _17  and  _20
REMARK    9  A    between atoms: _20  and  _21
REMARK   10  A    between atoms: _26  and  _28
REMARK   11  A    between atoms: _28  and  _29
REMARK   12  A    between atoms: _28  and  _31
REMARK   13  A    between atoms: _31  and  _32
REMARK   14  A    between atoms: _37  and  _39
REMARK   15  A    between atoms: _39  and  _40
REMARK   16  A    between atoms: _39  and  _42
REMARK   17  A    between atoms: _42  and  _43
REMARK   18  A    between atoms: _46  and  _48
REMARK   19  A    between atoms: _48  and  _49
REMARK   20  A    between atoms: _48  and  _51
REMARK   21  A    between atoms: _51  and  _52
REMARK   22  A    between atoms: _55  and  _57
REMARK   23  A    between atoms: _57  and  _58
REMARK   24  A    between atoms: _57  and  _60
REMARK   25  A    between atoms: _60  and  _61
REMARK   26  A    between atoms: _64  and  _66
REMARK   27  A    between atoms: _66  and  _67
REMARK   28  A    between atoms: _66  and  _69
REMARK   29  A    between atoms: _71  and  _73
REMARK   30  A    between atoms: _73  and  _74
REMARK   31  A    between atoms: _73  and  _76
REMARK   32  A    between atoms: _76  and  _77
REMARK   33  A    between atoms: _79  and  _81
REMARK   34  A    between atoms: _81  and  _82
REMARK   35  A    between atoms: _81  and  _84
REMARK   36  A    between atoms: _87  and  _89
REMARK   37  A    between atoms: _89  and  _90
REMARK   38  A    between atoms: _89  and  _92
REMARK   39  A    between atoms: _92  and  _93
REMARK   40  A    between atoms: _96  and  _98
REMARK   41  A    between atoms: _98  and  _99
REMARK   42  A    between atoms: _98  and  _101
REMARK   43  A    between atoms: _101  and  _102
REMARK   44  A    between atoms: _105  and  _107
REMARK   45  A    between atoms: _107  and  _108
REMARK   46  A    between atoms: _107  and  _110
REMARK   47  A    between atoms: _110  and  _111
REMARK   48  A    between atoms: _114  and  _116
REMARK   49  A    between atoms: _116  and  _117
REMARK   50  A    between atoms: _120  and  _122
REMARK   51  A    between atoms: _122  and  _123
REMARK   52  A    between atoms: _122  and  _125
REMARK   53  A    between atoms: _125  and  _126
REMARK   54  A    between atoms: _129  and  _131
REMARK   55  A    between atoms: _131  and  _132
REMARK   56  A    between atoms: _131  and  _134
REMARK   57  A    between atoms: _134  and  _135
REMARK   58  A    between atoms: _140  and  _141
REMARK   59  A    between atoms: _143  and  _145
REMARK   60  A    between atoms: _145  and  _146
REMARK   61  A    between atoms: _145  and  _148
REMARK   62  A    between atoms: _148  and  _149
REMARK   63  A    between atoms: _155  and  _157
REMARK   64  A    between atoms: _157  and  _158
REMARK   65  A    between atoms: _157  and  _160
REMARK   66  A    between atoms: _160  and  _161
REMARK   67  A    between atoms: _164  and  _166
REMARK   68  A    between atoms: _166  and  _167
REMARK   69  A    between atoms: _166  and  _169
REMARK   70  A    between atoms: _169  and  _170
REMARK   71  A    between atoms: _170  and  _171
REMARK   72  A    between atoms: _173  and  _175
REMARK   73  A    between atoms: _175  and  _176
REMARK   74  A    between atoms: _175  and  _178
REMARK   75  A    between atoms: _178  and  _179
REMARK   76  A    between atoms: _179  and  _180
REMARK   77  A    between atoms: _182  and  _184
REMARK   78  A    between atoms: _184  and  _185
REMARK   79  A    between atoms: _184  and  _187
REMARK   80  A    between atoms: _190  and  _192
REMARK   81  A    between atoms: _192  and  _193
REMARK   82  A    between atoms: _195  and  _197
REMARK   83  A    between atoms: _197  and  _198
REMARK   84  A    between atoms: _197  and  _200
REMARK   85  A    between atoms: _200  and  _201
REMARK   86  A    between atoms: _201  and  _202
REMARK   87  A    between atoms: _207  and  _209
REMARK   88  A    between atoms: _209  and  _210
REMARK   89  A    between atoms: _209  and  _212
REMARK   90  A    between atoms: _212  and  _213
REMARK   91  A    between atoms: _216  and  _218
REMARK   92  A    between atoms: _218  and  _219
REMARK   93  A    between atoms: _221  and  _223
REMARK   94  A    between atoms: _223  and  _224
REMARK   95  A    between atoms: _223  and  _226
REMARK   96  A    between atoms: _226  and  _227
REMARK   97  A    between atoms: _233  and  _235
REMARK   98  A    between atoms: _235  and  _236
REMARK   99  A    between atoms: _235  and  _238
REMARK  100  A    between atoms: _238  and  _239
REMARK  101  A    between atoms: _244  and  _245
REMARK  102  A    between atoms: _247  and  _249
REMARK  103  A    between atoms: _249  and  _250
REMARK  104  A    between atoms: _249  and  _252
REMARK  105  A    between atoms: _255  and  _257
REMARK  106  A    between atoms: _257  and  _258
REMARK  107  A    between atoms: _261  and  _263
REMARK  108  A    between atoms: _263  and  _264
REMARK  109  A    between atoms: _263  and  _266
REMARK  110  A    between atoms: _266  and  _267
REMARK                            x       y       z     vdW  Elec       q    Type
REMARK                         _______ _______ _______ _____ _____    ______ ____
ROOT
ATOM      1  O   HOH     1       6.787   4.801  41.899  0.00  0.00    +0.000 OA
ENDROOT
TORSDOF 0
REMARK  Name = ../refined-set-2016/4lkq/4lkq_pocket.pdb
REMARK  110 active torsions:
REMARK  status: ('A' for Active; 'I' for Inactive)
REMARK    1  A    between atoms: _1  and  _3
REMARK    2  A    between atoms: _3  and  _4
REMARK    3  A    between atoms: _3  and  _6
REMARK    4  A    between atoms: _6  and  _7
REMARK    5  A    between atoms: _12  and  _13
REMARK    6  A    between atoms: _15  and  _17
REMARK    7  A    between atoms: _17  and  _18
REMARK    8  A    between atoms: _17  and  _20
REMARK    9  A    between atoms: _20  and  _21
REMARK   10  A    between atoms: _26  and  _28
REMARK   11  A    between atoms: _28  and  _29
REMARK   12  A    between atoms: _28  and  _31
REMARK   13  A    between atoms: _31  and  _32
REMARK   14  A    between atoms: _37  and  _39
REMARK   15  A    between atoms: _39  and  _40
REMARK   16  A    between atoms: _39  and  _42
REMARK   17  A    between atoms: _42  and  _43
REMARK   18  A    between atoms: _46  and  _48
REMARK   19  A    between atoms: _48  and  _49
REMARK   20  A    between atoms: _48  and  _51
REMARK   21  A    between atoms: _51  and  _52
REMARK   22  A    between atoms: _55  and  _57
REMARK   23  A    between atoms: _57  and  _58
REMARK   24  A    between atoms: _57  and  _60
REMARK   25  A    between atoms: _60  and  _61
REMARK   26  A    between atoms: _64  and  _66
REMARK   27  A    between atoms: _66  and  _67
REMARK   28  A    between atoms: _66  and  _69
REMARK   29  A    between atoms: _71  and  _73
REMARK   30  A    between atoms: _73  and  _74
REMARK   31  A    between atoms: _73  and  _76
REMARK   32  A    between atoms: _76  and  _77
REMARK   33  A    between atoms: _79  and  _81
REMARK   34  A    between atoms: _81  and  _82
REMARK   35  A    between atoms: _81  and  _84
REMARK   36  A    between atoms: _87  and  _89
REMARK   37  A    between atoms: _89  and  _90
REMARK   38  A    between atoms: _89  and  _92
REMARK   39  A    between atoms: _92  and  _93
REMARK   40  A    between atoms: _96  and  _98
REMARK   41  A    between atoms: _98  and  _99
REMARK   42  A    between atoms: _98  and  _101
REMARK   43  A    between atoms: _101  and  _102
REMARK   44  A    between atoms: _105  and  _107
REMARK   45  A    between atoms: _107  and  _108
REMARK   46  A    between atoms: _107  and  _110
REMARK   47  A    between atoms: _110  and  _111
REMARK   48  A    between atoms: _114  and  _116
REMARK   49  A    between atoms: _116  and  _117
REMARK   50  A    between atoms: _120  and  _122
REMARK   51  A    between atoms: _122  and  _123
REMARK   52  A    between atoms: _122  and  _125
REMARK   53  A    between atoms: _125  and  _126
REMARK   54  A    between atoms: _129  and  _131
REMARK   55  A    between atoms: _131  and  _132
REMARK   56  A    between atoms: _131  and  _134
REMARK   57  A    between atoms: _134  and  _135
REMARK   58  A    between atoms: _140  and  _141
REMARK   59  A    between atoms: _143  and  _145
REMARK   60  A    between atoms: _145  and  _146
REMARK   61  A    between atoms: _145  and  _148
REMARK   62  A    between atoms: _148  and  _149
REMARK   63  A    between atoms: _155  and  _157
REMARK   64  A    between atoms: _157  and  _158
REMARK   65  A    between atoms: _157  and  _160
REMARK   66  A    between atoms: _160  and  _161
REMARK   67  A    between atoms: _164  and  _166
REMARK   68  A    between atoms: _166  and  _167
REMARK   69  A    between atoms: _166  and  _169
REMARK   70  A    between atoms: _169  and  _170
REMARK   71  A    between atoms: _170  and  _171
REMARK   72  A    between atoms: _173  and  _175
REMARK   73  A    between atoms: _175  and  _176
REMARK   74  A    between atoms: _175  and  _178
REMARK   75  A    between atoms: _178  and  _179
REMARK   76  A    between atoms: _179  and  _180
REMARK   77  A    between atoms: _182  and  _184
REMARK   78  A    between atoms: _184  and  _185
REMARK   79  A    between atoms: _184  and  _187
REMARK   80  A    between atoms: _190  and  _192
REMARK   81  A    between atoms: _192  and  _193
REMARK   82  A    between atoms: _195  and  _197
REMARK   83  A    between atoms: _197  and  _198
REMARK   84  A    between atoms: _197  and  _200
REMARK   85  A    between atoms: _200  and  _201
REMARK   86  A    between atoms: _201  and  _202
REMARK   87  A    between atoms: _207  and  _209
REMARK   88  A    between atoms: _209  and  _210
REMARK   89  A    between atoms: _209  and  _212
REMARK   90  A    between atoms: _212  and  _213
REMARK   91  A    between atoms: _216  and  _218
REMARK   92  A    between atoms: _218  and  _219
REMARK   93  A    between atoms: _221  and  _223
REMARK   94  A    between atoms: _223  and  _224
REMARK   95  A    between atoms: _223  and  _226
REMARK   96  A    between atoms: _226  and  _227
REMARK   97  A    between atoms: _233  and  _235
REMARK   98  A    between atoms: _235  and  _236
REMARK   99  A    between atoms: _235  and  _238
REMARK  100  A    between atoms: _238  and  _239
REMARK  101  A    between atoms: _244  and  _245
REMARK  102  A    between atoms: _247  and  _249
REMARK  103  A    between atoms: _249  and  _250
REMARK  104  A    between atoms: _249  and  _252
REMARK  105  A    between atoms: _255  and  _257
REMARK  106  A    between atoms: _257  and  _258
REMARK  107  A    between atoms: _261  and  _263
REMARK  108  A    between atoms: _263  and  _264
REMARK  109  A    between atoms: _263  and  _266
REMARK  110  A    between atoms: _266  and  _267
REMARK                            x       y       z     vdW  Elec       q    Type
REMARK                         _______ _______ _______ _____ _____    ______ ____
ROOT
ATOM      1  O   HOH     1       4.489   4.178  46.089  0.00  0.00    +0.000 OA
ENDROOT
TORSDOF 0
REMARK  Name = ../refined-set-2016/4lkq/4lkq_pocket.pdb
REMARK  110 active torsions:
REMARK  status: ('A' for Active; 'I' for Inactive)
REMARK    1  A    between atoms: _1  and  _3
REMARK    2  A    between atoms: _3  and  _4
REMARK    3  A    between atoms: _3  and  _6
REMARK    4  A    between atoms: _6  and  _7
REMARK    5  A    between atoms: _12  and  _13
REMARK    6  A    between atoms: _15  and  _17
REMARK    7  A    between atoms: _17  and  _18
REMARK    8  A    between atoms: _17  and  _20
REMARK    9  A    between atoms: _20  and  _21
REMARK   10  A    between atoms: _26  and  _28
REMARK   11  A    between atoms: _28  and  _29
REMARK   12  A    between atoms: _28  and  _31
REMARK   13  A    between atoms: _31  and  _32
REMARK   14  A    between atoms: _37  and  _39
REMARK   15  A    between atoms: _39  and  _40
REMARK   16  A    between atoms: _39  and  _42
REMARK   17  A    between atoms: _42  and  _43
REMARK   18  A    between atoms: _46  and  _48
REMARK   19  A    between atoms: _48  and  _49
REMARK   20  A    between atoms: _48  and  _51
REMARK   21  A    between atoms: _51  and  _52
REMARK   22  A    between atoms: _55  and  _57
REMARK   23  A    between atoms: _57  and  _58
REMARK   24  A    between atoms: _57  and  _60
REMARK   25  A    between atoms: _60  and  _61
REMARK   26  A    between atoms: _64  and  _66
REMARK   27  A    between atoms: _66  and  _67
REMARK   28  A    between atoms: _66  and  _69
REMARK   29  A    between atoms: _71  and  _73
REMARK   30  A    between atoms: _73  and  _74
REMARK   31  A    between atoms: _73  and  _76
REMARK   32  A    between atoms: _76  and  _77
REMARK   33  A    between atoms: _79  and  _81
REMARK   34  A    between atoms: _81  and  _82
REMARK   35  A    between atoms: _81  and  _84
REMARK   36  A    between atoms: _87  and  _89
REMARK   37  A    between atoms: _89  and  _90
REMARK   38  A    between atoms: _89  and  _92
REMARK   39  A    between atoms: _92  and  _93
REMARK   40  A    between atoms: _96  and  _98
REMARK   41  A    between atoms: _98  and  _99
REMARK   42  A    between atoms: _98  and  _101
REMARK   43  A    between atoms: _101  and  _102
REMARK   44  A    between atoms: _105  and  _107
REMARK   45  A    between atoms: _107  and  _108
REMARK   46  A    between atoms: _107  and  _110
REMARK   47  A    between atoms: _110  and  _111
REMARK   48  A    between atoms: _114  and  _116
REMARK   49  A    between atoms: _116  and  _117
REMARK   50  A    between atoms: _120  and  _122
REMARK   51  A    between atoms: _122  and  _123
REMARK   52  A    between atoms: _122  and  _125
REMARK   53  A    between atoms: _125  and  _126
REMARK   54  A    between atoms: _129  and  _131
REMARK   55  A    between atoms: _131  and  _132
REMARK   56  A    between atoms: _131  and  _134
REMARK   57  A    between atoms: _134  and  _135
REMARK   58  A    between atoms: _140  and  _141
REMARK   59  A    between atoms: _143  and  _145
REMARK   60  A    between atoms: _145  and  _146
REMARK   61  A    between atoms: _145  and  _148
REMARK   62  A    between atoms: _148  and  _149
REMARK   63  A    between atoms: _155  and  _157
REMARK   64  A    between atoms: _157  and  _158
REMARK   65  A    between atoms: _157  and  _160
REMARK   66  A    between atoms: _160  and  _161
REMARK   67  A    between atoms: _164  and  _166
REMARK   68  A    between atoms: _166  and  _167
REMARK   69  A    between atoms: _166  and  _169
REMARK   70  A    between atoms: _169  and  _170
REMARK   71  A    between atoms: _170  and  _171
REMARK   72  A    between atoms: _173  and  _175
REMARK   73  A    between atoms: _175  and  _176
REMARK   74  A    between atoms: _175  and  _178
REMARK   75  A    between atoms: _178  and  _179
REMARK   76  A    between atoms: _179  and  _180
REMARK   77  A    between atoms: _182  and  _184
REMARK   78  A    between atoms: _184  and  _185
REMARK   79  A    between atoms: _184  and  _187
REMARK   80  A    between atoms: _190  and  _192
REMARK   81  A    between atoms: _192  and  _193
REMARK   82  A    between atoms: _195  and  _197
REMARK   83  A    between atoms: _197  and  _198
REMARK   84  A    between atoms: _197  and  _200
REMARK   85  A    between atoms: _200  and  _201
REMARK   86  A    between atoms: _201  and  _202
REMARK   87  A    between atoms: _207  and  _209
REMARK   88  A    between atoms: _209  and  _210
REMARK   89  A    between atoms: _209  and  _212
REMARK   90  A    between atoms: _212  and  _213
REMARK   91  A    between atoms: _216  and  _218
REMARK   92  A    between atoms: _218  and  _219
REMARK   93  A    between atoms: _221  and  _223
REMARK   94  A    between atoms: _223  and  _224
REMARK   95  A    between atoms: _223  and  _226
REMARK   96  A    between atoms: _226  and  _227
REMARK   97  A    between atoms: _233  and  _235
REMARK   98  A    between atoms: _235  and  _236
REMARK   99  A    between atoms: _235  and  _238
REMARK  100  A    between atoms: _238  and  _239
REMARK  101  A    between atoms: _244  and  _245
REMARK  102  A    between atoms: _247  and  _249
REMARK  103  A    between atoms: _249  and  _250
REMARK  104  A    between atoms: _249  and  _252
REMARK  105  A    between atoms: _255  and  _257
REMARK  106  A    between atoms: _257  and  _258
REMARK  107  A    between atoms: _261  and  _263
REMARK  108  A    between atoms: _263  and  _264
REMARK  109  A    between atoms: _263  and  _266
REMARK  110  A    between atoms: _266  and  _267
REMARK                            x       y       z     vdW  Elec       q    Type
REMARK                         _______ _______ _______ _____ _____    ______ ____
ROOT
ATOM      1  O   HOH     1       1.322  18.156  47.264  0.00  0.00    +0.000 OA
ENDROOT
TORSDOF 0
REMARK  Name = ../refined-set-2016/4lkq/4lkq_pocket.pdb
REMARK  110 active torsions:
REMARK  status: ('A' for Active; 'I' for Inactive)
REMARK    1  A    between atoms: _1  and  _3
REMARK    2  A    between atoms: _3  and  _4
REMARK    3  A    between atoms: _3  and  _6
REMARK    4  A    between atoms: _6  and  _7
REMARK    5  A    between atoms: _12  and  _13
REMARK    6  A    between atoms: _15  and  _17
REMARK    7  A    between atoms: _17  and  _18
REMARK    8  A    between atoms: _17  and  _20
REMARK    9  A    between atoms: _20  and  _21
REMARK   10  A    between atoms: _26  and  _28
REMARK   11  A    between atoms: _28  and  _29
REMARK   12  A    between atoms: _28  and  _31
REMARK   13  A    between atoms: _31  and  _32
REMARK   14  A    between atoms: _37  and  _39
REMARK   15  A    between atoms: _39  and  _40
REMARK   16  A    between atoms: _39  and  _42
REMARK   17  A    between atoms: _42  and  _43
REMARK   18  A    between atoms: _46  and  _48
REMARK   19  A    between atoms: _48  and  _49
REMARK   20  A    between atoms: _48  and  _51
REMARK   21  A    between atoms: _51  and  _52
REMARK   22  A    between atoms: _55  and  _57
REMARK   23  A    between atoms: _57  and  _58
REMARK   24  A    between atoms: _57  and  _60
REMARK   25  A    between atoms: _60  and  _61
REMARK   26  A    between atoms: _64  and  _66
REMARK   27  A    between atoms: _66  and  _67
REMARK   28  A    between atoms: _66  and  _69
REMARK   29  A    between atoms: _71  and  _73
REMARK   30  A    between atoms: _73  and  _74
REMARK   31  A    between atoms: _73  and  _76
REMARK   32  A    between atoms: _76  and  _77
REMARK   33  A    between atoms: _79  and  _81
REMARK   34  A    between atoms: _81  and  _82
REMARK   35  A    between atoms: _81  and  _84
REMARK   36  A    between atoms: _87  and  _89
REMARK   37  A    between atoms: _89  and  _90
REMARK   38  A    between atoms: _89  and  _92
REMARK   39  A    between atoms: _92  and  _93
REMARK   40  A    between atoms: _96  and  _98
REMARK   41  A    between atoms: _98  and  _99
REMARK   42  A    between atoms: _98  and  _101
REMARK   43  A    between atoms: _101  and  _102
REMARK   44  A    between atoms: _105  and  _107
REMARK   45  A    between atoms: _107  and  _108
REMARK   46  A    between atoms: _107  and  _110
REMARK   47  A    between atoms: _110  and  _111
REMARK   48  A    between atoms: _114  and  _116
REMARK   49  A    between atoms: _116  and  _117
REMARK   50  A    between atoms: _120  and  _122
REMARK   51  A    between atoms: _122  and  _123
REMARK   52  A    between atoms: _122  and  _125
REMARK   53  A    between atoms: _125  and  _126
REMARK   54  A    between atoms: _129  and  _131
REMARK   55  A    between atoms: _131  and  _132
REMARK   56  A    between atoms: _131  and  _134
REMARK   57  A    between atoms: _134  and  _135
REMARK   58  A    between atoms: _140  and  _141
REMARK   59  A    between atoms: _143  and  _145
REMARK   60  A    between atoms: _145  and  _146
REMARK   61  A    between atoms: _145  and  _148
REMARK   62  A    between atoms: _148  and  _149
REMARK   63  A    between atoms: _155  and  _157
REMARK   64  A    between atoms: _157  and  _158
REMARK   65  A    between atoms: _157  and  _160
REMARK   66  A    between atoms: _160  and  _161
REMARK   67  A    between atoms: _164  and  _166
REMARK   68  A    between atoms: _166  and  _167
REMARK   69  A    between atoms: _166  and  _169
REMARK   70  A    between atoms: _169  and  _170
REMARK   71  A    between atoms: _170  and  _171
REMARK   72  A    between atoms: _173  and  _175
REMARK   73  A    between atoms: _175  and  _176
REMARK   74  A    between atoms: _175  and  _178
REMARK   75  A    between atoms: _178  and  _179
REMARK   76  A    between atoms: _179  and  _180
REMARK   77  A    between atoms: _182  and  _184
REMARK   78  A    between atoms: _184  and  _185
REMARK   79  A    between atoms: _184  and  _187
REMARK   80  A    between atoms: _190  and  _192
REMARK   81  A    between atoms: _192  and  _193
REMARK   82  A    between atoms: _195  and  _197
REMARK   83  A    between atoms: _197  and  _198
REMARK   84  A    between atoms: _197  and  _200
REMARK   85  A    between atoms: _200  and  _201
REMARK   86  A    between atoms: _201  and  _202
REMARK   87  A    between atoms: _207  and  _209
REMARK   88  A    between atoms: _209  and  _210
REMARK   89  A    between atoms: _209  and  _212
REMARK   90  A    between atoms: _212  and  _213
REMARK   91  A    between atoms: _216  and  _218
REMARK   92  A    between atoms: _218  and  _219
REMARK   93  A    between atoms: _221  and  _223
REMARK   94  A    between atoms: _223  and  _224
REMARK   95  A    between atoms: _223  and  _226
REMARK   96  A    between atoms: _226  and  _227
REMARK   97  A    between atoms: _233  and  _235
REMARK   98  A    between atoms: _235  and  _236
REMARK   99  A    between atoms: _235  and  _238
REMARK  100  A    between atoms: _238  and  _239
REMARK  101  A    between atoms: _244  and  _245
REMARK  102  A    between atoms: _247  and  _249
REMARK  103  A    between atoms: _249  and  _250
REMARK  104  A    between atoms: _249  and  _252
REMARK  105  A    between atoms: _255  and  _257
REMARK  106  A    between atoms: _257  and  _258
REMARK  107  A    between atoms: _261  and  _263
REMARK  108  A    between atoms: _263  and  _264
REMARK  109  A    between atoms: _263  and  _266
REMARK  110  A    between atoms: _266  and  _267
REMARK                            x       y       z     vdW  Elec       q    Type
REMARK                         _______ _______ _______ _____ _____    ______ ____
ROOT
ATOM      1  O   HOH     1      11.308   6.731  41.691  0.00  0.00    +0.000 OA
ENDROOT
TORSDOF 0
REMARK  Name = ../refined-set-2016/4lkq/4lkq_pocket.pdb
REMARK  110 active torsions:
REMARK  status: ('A' for Active; 'I' for Inactive)
REMARK    1  A    between atoms: _1  and  _3
REMARK    2  A    between atoms: _3  and  _4
REMARK    3  A    between atoms: _3  and  _6
REMARK    4  A    between atoms: _6  and  _7
REMARK    5  A    between atoms: _12  and  _13
REMARK    6  A    between atoms: _15  and  _17
REMARK    7  A    between atoms: _17  and  _18
REMARK    8  A    between atoms: _17  and  _20
REMARK    9  A    between atoms: _20  and  _21
REMARK   10  A    between atoms: _26  and  _28
REMARK   11  A    between atoms: _28  and  _29
REMARK   12  A    between atoms: _28  and  _31
REMARK   13  A    between atoms: _31  and  _32
REMARK   14  A    between atoms: _37  and  _39
REMARK   15  A    between atoms: _39  and  _40
REMARK   16  A    between atoms: _39  and  _42
REMARK   17  A    between atoms: _42  and  _43
REMARK   18  A    between atoms: _46  and  _48
REMARK   19  A    between atoms: _48  and  _49
REMARK   20  A    between atoms: _48  and  _51
REMARK   21  A    between atoms: _51  and  _52
REMARK   22  A    between atoms: _55  and  _57
REMARK   23  A    between atoms: _57  and  _58
REMARK   24  A    between atoms: _57  and  _60
REMARK   25  A    between atoms: _60  and  _61
REMARK   26  A    between atoms: _64  and  _66
REMARK   27  A    between atoms: _66  and  _67
REMARK   28  A    between atoms: _66  and  _69
REMARK   29  A    between atoms: _71  and  _73
REMARK   30  A    between atoms: _73  and  _74
REMARK   31  A    between atoms: _73  and  _76
REMARK   32  A    between atoms: _76  and  _77
REMARK   33  A    between atoms: _79  and  _81
REMARK   34  A    between atoms: _81  and  _82
REMARK   35  A    between atoms: _81  and  _84
REMARK   36  A    between atoms: _87  and  _89
REMARK   37  A    between atoms: _89  and  _90
REMARK   38  A    between atoms: _89  and  _92
REMARK   39  A    between atoms: _92  and  _93
REMARK   40  A    between atoms: _96  and  _98
REMARK   41  A    between atoms: _98  and  _99
REMARK   42  A    between atoms: _98  and  _101
REMARK   43  A    between atoms: _101  and  _102
REMARK   44  A    between atoms: _105  and  _107
REMARK   45  A    between atoms: _107  and  _108
REMARK   46  A    between atoms: _107  and  _110
REMARK   47  A    between atoms: _110  and  _111
REMARK   48  A    between atoms: _114  and  _116
REMARK   49  A    between atoms: _116  and  _117
REMARK   50  A    between atoms: _120  and  _122
REMARK   51  A    between atoms: _122  and  _123
REMARK   52  A    between atoms: _122  and  _125
REMARK   53  A    between atoms: _125  and  _126
REMARK   54  A    between atoms: _129  and  _131
REMARK   55  A    between atoms: _131  and  _132
REMARK   56  A    between atoms: _131  and  _134
REMARK   57  A    between atoms: _134  and  _135
REMARK   58  A    between atoms: _140  and  _141
REMARK   59  A    between atoms: _143  and  _145
REMARK   60  A    between atoms: _145  and  _146
REMARK   61  A    between atoms: _145  and  _148
REMARK   62  A    between atoms: _148  and  _149
REMARK   63  A    between atoms: _155  and  _157
REMARK   64  A    between atoms: _157  and  _158
REMARK   65  A    between atoms: _157  and  _160
REMARK   66  A    between atoms: _160  and  _161
REMARK   67  A    between atoms: _164  and  _166
REMARK   68  A    between atoms: _166  and  _167
REMARK   69  A    between atoms: _166  and  _169
REMARK   70  A    between atoms: _169  and  _170
REMARK   71  A    between atoms: _170  and  _171
REMARK   72  A    between atoms: _173  and  _175
REMARK   73  A    between atoms: _175  and  _176
REMARK   74  A    between atoms: _175  and  _178
REMARK   75  A    between atoms: _178  and  _179
REMARK   76  A    between atoms: _179  and  _180
REMARK   77  A    between atoms: _182  and  _184
REMARK   78  A    between atoms: _184  and  _185
REMARK   79  A    between atoms: _184  and  _187
REMARK   80  A    between atoms: _190  and  _192
REMARK   81  A    between atoms: _192  and  _193
REMARK   82  A    between atoms: _195  and  _197
REMARK   83  A    between atoms: _197  and  _198
REMARK   84  A    between atoms: _197  and  _200
REMARK   85  A    between atoms: _200  and  _201
REMARK   86  A    between atoms: _201  and  _202
REMARK   87  A    between atoms: _207  and  _209
REMARK   88  A    between atoms: _209  and  _210
REMARK   89  A    between atoms: _209  and  _212
REMARK   90  A    between atoms: _212  and  _213
REMARK   91  A    between atoms: _216  and  _218
REMARK   92  A    between atoms: _218  and  _219
REMARK   93  A    between atoms: _221  and  _223
REMARK   94  A    between atoms: _223  and  _224
REMARK   95  A    between atoms: _223  and  _226
REMARK   96  A    between atoms: _226  and  _227
REMARK   97  A    between atoms: _233  and  _235
REMARK   98  A    between atoms: _235  and  _236
REMARK   99  A    between atoms: _235  and  _238
REMARK  100  A    between atoms: _238  and  _239
REMARK  101  A    between atoms: _244  and  _245
REMARK  102  A    between atoms: _247  and  _249
REMARK  103  A    between atoms: _249  and  _250
REMARK  104  A    between atoms: _249  and  _252
REMARK  105  A    between atoms: _255  and  _257
REMARK  106  A    between atoms: _257  and  _258
REMARK  107  A    between atoms: _261  and  _263
REMARK  108  A    between atoms: _263  and  _264
REMARK  109  A    between atoms: _263  and  _266
REMARK  110  A    between atoms: _266  and  _267
REMARK                            x       y       z     vdW  Elec       q    Type
REMARK                         _______ _______ _______ _____ _____    ______ ____
ROOT
ATOM      1  O   HOH     1       9.080   8.049  46.773  0.00  0.00    +0.000 OA
ENDROOT
TORSDOF 0
REMARK  Name = ../refined-set-2016/4lkq/4lkq_pocket.pdb
REMARK  110 active torsions:
REMARK  status: ('A' for Active; 'I' for Inactive)
REMARK    1  A    between atoms: _1  and  _3
REMARK    2  A    between atoms: _3  and  _4
REMARK    3  A    between atoms: _3  and  _6
REMARK    4  A    between atoms: _6  and  _7
REMARK    5  A    between atoms: _12  and  _13
REMARK    6  A    between atoms: _15  and  _17
REMARK    7  A    between atoms: _17  and  _18
REMARK    8  A    between atoms: _17  and  _20
REMARK    9  A    between atoms: _20  and  _21
REMARK   10  A    between atoms: _26  and  _28
REMARK   11  A    between atoms: _28  and  _29
REMARK   12  A    between atoms: _28  and  _31
REMARK   13  A    between atoms: _31  and  _32
REMARK   14  A    between atoms: _37  and  _39
REMARK   15  A    between atoms: _39  and  _40
REMARK   16  A    between atoms: _39  and  _42
REMARK   17  A    between atoms: _42  and  _43
REMARK   18  A    between atoms: _46  and  _48
REMARK   19  A    between atoms: _48  and  _49
REMARK   20  A    between atoms: _48  and  _51
REMARK   21  A    between atoms: _51  and  _52
REMARK   22  A    between atoms: _55  and  _57
REMARK   23  A    between atoms: _57  and  _58
REMARK   24  A    between atoms: _57  and  _60
REMARK   25  A    between atoms: _60  and  _61
REMARK   26  A    between atoms: _64  and  _66
REMARK   27  A    between atoms: _66  and  _67
REMARK   28  A    between atoms: _66  and  _69
REMARK   29  A    between atoms: _71  and  _73
REMARK   30  A    between atoms: _73  and  _74
REMARK   31  A    between atoms: _73  and  _76
REMARK   32  A    between atoms: _76  and  _77
REMARK   33  A    between atoms: _79  and  _81
REMARK   34  A    between atoms: _81  and  _82
REMARK   35  A    between atoms: _81  and  _84
REMARK   36  A    between atoms: _87  and  _89
REMARK   37  A    between atoms: _89  and  _90
REMARK   38  A    between atoms: _89  and  _92
REMARK   39  A    between atoms: _92  and  _93
REMARK   40  A    between atoms: _96  and  _98
REMARK   41  A    between atoms: _98  and  _99
REMARK   42  A    between atoms: _98  and  _101
REMARK   43  A    between atoms: _101  and  _102
REMARK   44  A    between atoms: _105  and  _107
REMARK   45  A    between atoms: _107  and  _108
REMARK   46  A    between atoms: _107  and  _110
REMARK   47  A    between atoms: _110  and  _111
REMARK   48  A    between atoms: _114  and  _116
REMARK   49  A    between atoms: _116  and  _117
REMARK   50  A    between atoms: _120  and  _122
REMARK   51  A    between atoms: _122  and  _123
REMARK   52  A    between atoms: _122  and  _125
REMARK   53  A    between atoms: _125  and  _126
REMARK   54  A    between atoms: _129  and  _131
REMARK   55  A    between atoms: _131  and  _132
REMARK   56  A    between atoms: _131  and  _134
REMARK   57  A    between atoms: _134  and  _135
REMARK   58  A    between atoms: _140  and  _141
REMARK   59  A    between atoms: _143  and  _145
REMARK   60  A    between atoms: _145  and  _146
REMARK   61  A    between atoms: _145  and  _148
REMARK   62  A    between atoms: _148  and  _149
REMARK   63  A    between atoms: _155  and  _157
REMARK   64  A    between atoms: _157  and  _158
REMARK   65  A    between atoms: _157  and  _160
REMARK   66  A    between atoms: _160  and  _161
REMARK   67  A    between atoms: _164  and  _166
REMARK   68  A    between atoms: _166  and  _167
REMARK   69  A    between atoms: _166  and  _169
REMARK   70  A    between atoms: _169  and  _170
REMARK   71  A    between atoms: _170  and  _171
REMARK   72  A    between atoms: _173  and  _175
REMARK   73  A    between atoms: _175  and  _176
REMARK   74  A    between atoms: _175  and  _178
REMARK   75  A    between atoms: _178  and  _179
REMARK   76  A    between atoms: _179  and  _180
REMARK   77  A    between atoms: _182  and  _184
REMARK   78  A    between atoms: _184  and  _185
REMARK   79  A    between atoms: _184  and  _187
REMARK   80  A    between atoms: _190  and  _192
REMARK   81  A    between atoms: _192  and  _193
REMARK   82  A    between atoms: _195  and  _197
REMARK   83  A    between atoms: _197  and  _198
REMARK   84  A    between atoms: _197  and  _200
REMARK   85  A    between atoms: _200  and  _201
REMARK   86  A    between atoms: _201  and  _202
REMARK   87  A    between atoms: _207  and  _209
REMARK   88  A    between atoms: _209  and  _210
REMARK   89  A    between atoms: _209  and  _212
REMARK   90  A    between atoms: _212  and  _213
REMARK   91  A    between atoms: _216  and  _218
REMARK   92  A    between atoms: _218  and  _219
REMARK   93  A    between atoms: _221  and  _223
REMARK   94  A    between atoms: _223  and  _224
REMARK   95  A    between atoms: _223  and  _226
REMARK   96  A    between atoms: _226  and  _227
REMARK   97  A    between atoms: _233  and  _235
REMARK   98  A    between atoms: _235  and  _236
REMARK   99  A    between atoms: _235  and  _238
REMARK  100  A    between atoms: _238  and  _239
REMARK  101  A    between atoms: _244  and  _245
REMARK  102  A    between atoms: _247  and  _249
REMARK  103  A    between atoms: _249  and  _250
REMARK  104  A    between atoms: _249  and  _252
REMARK  105  A    between atoms: _255  and  _257
REMARK  106  A    between atoms: _257  and  _258
REMARK  107  A    between atoms: _261  and  _263
REMARK  108  A    between atoms: _263  and  _264
REMARK  109  A    between atoms: _263  and  _266
REMARK  110  A    between atoms: _266  and  _267
REMARK                            x       y       z     vdW  Elec       q    Type
REMARK                         _______ _______ _______ _____ _____    ______ ____
ROOT
ATOM      1  O   HOH     1      11.123   9.094  40.383  0.00  0.00    +0.000 OA
ENDROOT
TORSDOF 0
REMARK  Name = ../refined-set-2016/4lkq/4lkq_pocket.pdb
REMARK  110 active torsions:
REMARK  status: ('A' for Active; 'I' for Inactive)
REMARK    1  A    between atoms: _1  and  _3
REMARK    2  A    between atoms: _3  and  _4
REMARK    3  A    between atoms: _3  and  _6
REMARK    4  A    between atoms: _6  and  _7
REMARK    5  A    between atoms: _12  and  _13
REMARK    6  A    between atoms: _15  and  _17
REMARK    7  A    between atoms: _17  and  _18
REMARK    8  A    between atoms: _17  and  _20
REMARK    9  A    between atoms: _20  and  _21
REMARK   10  A    between atoms: _26  and  _28
REMARK   11  A    between atoms: _28  and  _29
REMARK   12  A    between atoms: _28  and  _31
REMARK   13  A    between atoms: _31  and  _32
REMARK   14  A    between atoms: _37  and  _39
REMARK   15  A    between atoms: _39  and  _40
REMARK   16  A    between atoms: _39  and  _42
REMARK   17  A    between atoms: _42  and  _43
REMARK   18  A    between atoms: _46  and  _48
REMARK   19  A    between atoms: _48  and  _49
REMARK   20  A    between atoms: _48  and  _51
REMARK   21  A    between atoms: _51  and  _52
REMARK   22  A    between atoms: _55  and  _57
REMARK   23  A    between atoms: _57  and  _58
REMARK   24  A    between atoms: _57  and  _60
REMARK   25  A    between atoms: _60  and  _61
REMARK   26  A    between atoms: _64  and  _66
REMARK   27  A    between atoms: _66  and  _67
REMARK   28  A    between atoms: _66  and  _69
REMARK   29  A    between atoms: _71  and  _73
REMARK   30  A    between atoms: _73  and  _74
REMARK   31  A    between atoms: _73  and  _76
REMARK   32  A    between atoms: _76  and  _77
REMARK   33  A    between atoms: _79  and  _81
REMARK   34  A    between atoms: _81  and  _82
REMARK   35  A    between atoms: _81  and  _84
REMARK   36  A    between atoms: _87  and  _89
REMARK   37  A    between atoms: _89  and  _90
REMARK   38  A    between atoms: _89  and  _92
REMARK   39  A    between atoms: _92  and  _93
REMARK   40  A    between atoms: _96  and  _98
REMARK   41  A    between atoms: _98  and  _99
REMARK   42  A    between atoms: _98  and  _101
REMARK   43  A    between atoms: _101  and  _102
REMARK   44  A    between atoms: _105  and  _107
REMARK   45  A    between atoms: _107  and  _108
REMARK   46  A    between atoms: _107  and  _110
REMARK   47  A    between atoms: _110  and  _111
REMARK   48  A    between atoms: _114  and  _116
REMARK   49  A    between atoms: _116  and  _117
REMARK   50  A    between atoms: _120  and  _122
REMARK   51  A    between atoms: _122  and  _123
REMARK   52  A    between atoms: _122  and  _125
REMARK   53  A    between atoms: _125  and  _126
REMARK   54  A    between atoms: _129  and  _131
REMARK   55  A    between atoms: _131  and  _132
REMARK   56  A    between atoms: _131  and  _134
REMARK   57  A    between atoms: _134  and  _135
REMARK   58  A    between atoms: _140  and  _141
REMARK   59  A    between atoms: _143  and  _145
REMARK   60  A    between atoms: _145  and  _146
REMARK   61  A    between atoms: _145  and  _148
REMARK   62  A    between atoms: _148  and  _149
REMARK   63  A    between atoms: _155  and  _157
REMARK   64  A    between atoms: _157  and  _158
REMARK   65  A    between atoms: _157  and  _160
REMARK   66  A    between atoms: _160  and  _161
REMARK   67  A    between atoms: _164  and  _166
REMARK   68  A    between atoms: _166  and  _167
REMARK   69  A    between atoms: _166  and  _169
REMARK   70  A    between atoms: _169  and  _170
REMARK   71  A    between atoms: _170  and  _171
REMARK   72  A    between atoms: _173  and  _175
REMARK   73  A    between atoms: _175  and  _176
REMARK   74  A    between atoms: _175  and  _178
REMARK   75  A    between atoms: _178  and  _179
REMARK   76  A    between atoms: _179  and  _180
REMARK   77  A    between atoms: _182  and  _184
REMARK   78  A    between atoms: _184  and  _185
REMARK   79  A    between atoms: _184  and  _187
REMARK   80  A    between atoms: _190  and  _192
REMARK   81  A    between atoms: _192  and  _193
REMARK   82  A    between atoms: _195  and  _197
REMARK   83  A    between atoms: _197  and  _198
REMARK   84  A    between atoms: _197  and  _200
REMARK   85  A    between atoms: _200  and  _201
REMARK   86  A    between atoms: _201  and  _202
REMARK   87  A    between atoms: _207  and  _209
REMARK   88  A    between atoms: _209  and  _210
REMARK   89  A    between atoms: _209  and  _212
REMARK   90  A    between atoms: _212  and  _213
REMARK   91  A    between atoms: _216  and  _218
REMARK   92  A    between atoms: _218  and  _219
REMARK   93  A    between atoms: _221  and  _223
REMARK   94  A    between atoms: _223  and  _224
REMARK   95  A    between atoms: _223  and  _226
REMARK   96  A    between atoms: _226  and  _227
REMARK   97  A    between atoms: _233  and  _235
REMARK   98  A    between atoms: _235  and  _236
REMARK   99  A    between atoms: _235  and  _238
REMARK  100  A    between atoms: _238  and  _239
REMARK  101  A    between atoms: _244  and  _245
REMARK  102  A    between atoms: _247  and  _249
REMARK  103  A    between atoms: _249  and  _250
REMARK  104  A    between atoms: _249  and  _252
REMARK  105  A    between atoms: _255  and  _257
REMARK  106  A    between atoms: _257  and  _258
REMARK  107  A    between atoms: _261  and  _263
REMARK  108  A    between atoms: _263  and  _264
REMARK  109  A    between atoms: _263  and  _266
REMARK  110  A    between atoms: _266  and  _267
REMARK                            x       y       z     vdW  Elec       q    Type
REMARK                         _______ _______ _______ _____ _____    ______ ____
ROOT
ATOM      1  O   HOH     1       3.859  19.660  36.370  0.00  0.00    +0.000 OA
ENDROOT
TORSDOF 0
REMARK  Name = ../refined-set-2016/4lkq/4lkq_pocket.pdb
REMARK  110 active torsions:
REMARK  status: ('A' for Active; 'I' for Inactive)
REMARK    1  A    between atoms: _1  and  _3
REMARK    2  A    between atoms: _3  and  _4
REMARK    3  A    between atoms: _3  and  _6
REMARK    4  A    between atoms: _6  and  _7
REMARK    5  A    between atoms: _12  and  _13
REMARK    6  A    between atoms: _15  and  _17
REMARK    7  A    between atoms: _17  and  _18
REMARK    8  A    between atoms: _17  and  _20
REMARK    9  A    between atoms: _20  and  _21
REMARK   10  A    between atoms: _26  and  _28
REMARK   11  A    between atoms: _28  and  _29
REMARK   12  A    between atoms: _28  and  _31
REMARK   13  A    between atoms: _31  and  _32
REMARK   14  A    between atoms: _37  and  _39
REMARK   15  A    between atoms: _39  and  _40
REMARK   16  A    between atoms: _39  and  _42
REMARK   17  A    between atoms: _42  and  _43
REMARK   18  A    between atoms: _46  and  _48
REMARK   19  A    between atoms: _48  and  _49
REMARK   20  A    between atoms: _48  and  _51
REMARK   21  A    between atoms: _51  and  _52
REMARK   22  A    between atoms: _55  and  _57
REMARK   23  A    between atoms: _57  and  _58
REMARK   24  A    between atoms: _57  and  _60
REMARK   25  A    between atoms: _60  and  _61
REMARK   26  A    between atoms: _64  and  _66
REMARK   27  A    between atoms: _66  and  _67
REMARK   28  A    between atoms: _66  and  _69
REMARK   29  A    between atoms: _71  and  _73
REMARK   30  A    between atoms: _73  and  _74
REMARK   31  A    between atoms: _73  and  _76
REMARK   32  A    between atoms: _76  and  _77
REMARK   33  A    between atoms: _79  and  _81
REMARK   34  A    between atoms: _81  and  _82
REMARK   35  A    between atoms: _81  and  _84
REMARK   36  A    between atoms: _87  and  _89
REMARK   37  A    between atoms: _89  and  _90
REMARK   38  A    between atoms: _89  and  _92
REMARK   39  A    between atoms: _92  and  _93
REMARK   40  A    between atoms: _96  and  _98
REMARK   41  A    between atoms: _98  and  _99
REMARK   42  A    between atoms: _98  and  _101
REMARK   43  A    between atoms: _101  and  _102
REMARK   44  A    between atoms: _105  and  _107
REMARK   45  A    between atoms: _107  and  _108
REMARK   46  A    between atoms: _107  and  _110
REMARK   47  A    between atoms: _110  and  _111
REMARK   48  A    between atoms: _114  and  _116
REMARK   49  A    between atoms: _116  and  _117
REMARK   50  A    between atoms: _120  and  _122
REMARK   51  A    between atoms: _122  and  _123
REMARK   52  A    between atoms: _122  and  _125
REMARK   53  A    between atoms: _125  and  _126
REMARK   54  A    between atoms: _129  and  _131
REMARK   55  A    between atoms: _131  and  _132
REMARK   56  A    between atoms: _131  and  _134
REMARK   57  A    between atoms: _134  and  _135
REMARK   58  A    between atoms: _140  and  _141
REMARK   59  A    between atoms: _143  and  _145
REMARK   60  A    between atoms: _145  and  _146
REMARK   61  A    between atoms: _145  and  _148
REMARK   62  A    between atoms: _148  and  _149
REMARK   63  A    between atoms: _155  and  _157
REMARK   64  A    between atoms: _157  and  _158
REMARK   65  A    between atoms: _157  and  _160
REMARK   66  A    between atoms: _160  and  _161
REMARK   67  A    between atoms: _164  and  _166
REMARK   68  A    between atoms: _166  and  _167
REMARK   69  A    between atoms: _166  and  _169
REMARK   70  A    between atoms: _169  and  _170
REMARK   71  A    between atoms: _170  and  _171
REMARK   72  A    between atoms: _173  and  _175
REMARK   73  A    between atoms: _175  and  _176
REMARK   74  A    between atoms: _175  and  _178
REMARK   75  A    between atoms: _178  and  _179
REMARK   76  A    between atoms: _179  and  _180
REMARK   77  A    between atoms: _182  and  _184
REMARK   78  A    between atoms: _184  and  _185
REMARK   79  A    between atoms: _184  and  _187
REMARK   80  A    between atoms: _190  and  _192
REMARK   81  A    between atoms: _192  and  _193
REMARK   82  A    between atoms: _195  and  _197
REMARK   83  A    between atoms: _197  and  _198
REMARK   84  A    between atoms: _197  and  _200
REMARK   85  A    between atoms: _200  and  _201
REMARK   86  A    between atoms: _201  and  _202
REMARK   87  A    between atoms: _207  and  _209
REMARK   88  A    between atoms: _209  and  _210
REMARK   89  A    between atoms: _209  and  _212
REMARK   90  A    between atoms: _212  and  _213
REMARK   91  A    between atoms: _216  and  _218
REMARK   92  A    between atoms: _218  and  _219
REMARK   93  A    between atoms: _221  and  _223
REMARK   94  A    between atoms: _223  and  _224
REMARK   95  A    between atoms: _223  and  _226
REMARK   96  A    between atoms: _226  and  _227
REMARK   97  A    between atoms: _233  and  _235
REMARK   98  A    between atoms: _235  and  _236
REMARK   99  A    between atoms: _235  and  _238
REMARK  100  A    between atoms: _238  and  _239
REMARK  101  A    between atoms: _244  and  _245
REMARK  102  A    between atoms: _247  and  _249
REMARK  103  A    between atoms: _249  and  _250
REMARK  104  A    between atoms: _249  and  _252
REMARK  105  A    between atoms: _255  and  _257
REMARK  106  A    between atoms: _257  and  _258
REMARK  107  A    between atoms: _261  and  _263
REMARK  108  A    between atoms: _263  and  _264
REMARK  109  A    between atoms: _263  and  _266
REMARK  110  A    between atoms: _266  and  _267
REMARK                            x       y       z     vdW  Elec       q    Type
REMARK                         _______ _______ _______ _____ _____    ______ ____
ROOT
ATOM      1  O   HOH     1       3.798  16.995  48.582  0.00  0.00    +0.000 OA
ENDROOT
TORSDOF 0
REMARK  Name = ../refined-set-2016/4lkq/4lkq_pocket.pdb
REMARK  110 active torsions:
REMARK  status: ('A' for Active; 'I' for Inactive)
REMARK    1  A    between atoms: _1  and  _3
REMARK    2  A    between atoms: _3  and  _4
REMARK    3  A    between atoms: _3  and  _6
REMARK    4  A    between atoms: _6  and  _7
REMARK    5  A    between atoms: _12  and  _13
REMARK    6  A    between atoms: _15  and  _17
REMARK    7  A    between atoms: _17  and  _18
REMARK    8  A    between atoms: _17  and  _20
REMARK    9  A    between atoms: _20  and  _21
REMARK   10  A    between atoms: _26  and  _28
REMARK   11  A    between atoms: _28  and  _29
REMARK   12  A    between atoms: _28  and  _31
REMARK   13  A    between atoms: _31  and  _32
REMARK   14  A    between atoms: _37  and  _39
REMARK   15  A    between atoms: _39  and  _40
REMARK   16  A    between atoms: _39  and  _42
REMARK   17  A    between atoms: _42  and  _43
REMARK   18  A    between atoms: _46  and  _48
REMARK   19  A    between atoms: _48  and  _49
REMARK   20  A    between atoms: _48  and  _51
REMARK   21  A    between atoms: _51  and  _52
REMARK   22  A    between atoms: _55  and  _57
REMARK   23  A    between atoms: _57  and  _58
REMARK   24  A    between atoms: _57  and  _60
REMARK   25  A    between atoms: _60  and  _61
REMARK   26  A    between atoms: _64  and  _66
REMARK   27  A    between atoms: _66  and  _67
REMARK   28  A    between atoms: _66  and  _69
REMARK   29  A    between atoms: _71  and  _73
REMARK   30  A    between atoms: _73  and  _74
REMARK   31  A    between atoms: _73  and  _76
REMARK   32  A    between atoms: _76  and  _77
REMARK   33  A    between atoms: _79  and  _81
REMARK   34  A    between atoms: _81  and  _82
REMARK   35  A    between atoms: _81  and  _84
REMARK   36  A    between atoms: _87  and  _89
REMARK   37  A    between atoms: _89  and  _90
REMARK   38  A    between atoms: _89  and  _92
REMARK   39  A    between atoms: _92  and  _93
REMARK   40  A    between atoms: _96  and  _98
REMARK   41  A    between atoms: _98  and  _99
REMARK   42  A    between atoms: _98  and  _101
REMARK   43  A    between atoms: _101  and  _102
REMARK   44  A    between atoms: _105  and  _107
REMARK   45  A    between atoms: _107  and  _108
REMARK   46  A    between atoms: _107  and  _110
REMARK   47  A    between atoms: _110  and  _111
REMARK   48  A    between atoms: _114  and  _116
REMARK   49  A    between atoms: _116  and  _117
REMARK   50  A    between atoms: _120  and  _122
REMARK   51  A    between atoms: _122  and  _123
REMARK   52  A    between atoms: _122  and  _125
REMARK   53  A    between atoms: _125  and  _126
REMARK   54  A    between atoms: _129  and  _131
REMARK   55  A    between atoms: _131  and  _132
REMARK   56  A    between atoms: _131  and  _134
REMARK   57  A    between atoms: _134  and  _135
REMARK   58  A    between atoms: _140  and  _141
REMARK   59  A    between atoms: _143  and  _145
REMARK   60  A    between atoms: _145  and  _146
REMARK   61  A    between atoms: _145  and  _148
REMARK   62  A    between atoms: _148  and  _149
REMARK   63  A    between atoms: _155  and  _157
REMARK   64  A    between atoms: _157  and  _158
REMARK   65  A    between atoms: _157  and  _160
REMARK   66  A    between atoms: _160  and  _161
REMARK   67  A    between atoms: _164  and  _166
REMARK   68  A    between atoms: _166  and  _167
REMARK   69  A    between atoms: _166  and  _169
REMARK   70  A    between atoms: _169  and  _170
REMARK   71  A    between atoms: _170  and  _171
REMARK   72  A    between atoms: _173  and  _175
REMARK   73  A    between atoms: _175  and  _176
REMARK   74  A    between atoms: _175  and  _178
REMARK   75  A    between atoms: _178  and  _179
REMARK   76  A    between atoms: _179  and  _180
REMARK   77  A    between atoms: _182  and  _184
REMARK   78  A    between atoms: _184  and  _185
REMARK   79  A    between atoms: _184  and  _187
REMARK   80  A    between atoms: _190  and  _192
REMARK   81  A    between atoms: _192  and  _193
REMARK   82  A    between atoms: _195  and  _197
REMARK   83  A    between atoms: _197  and  _198
REMARK   84  A    between atoms: _197  and  _200
REMARK   85  A    between atoms: _200  and  _201
REMARK   86  A    between atoms: _201  and  _202
REMARK   87  A    between atoms: _207  and  _209
REMARK   88  A    between atoms: _209  and  _210
REMARK   89  A    between atoms: _209  and  _212
REMARK   90  A    between atoms: _212  and  _213
REMARK   91  A    between atoms: _216  and  _218
REMARK   92  A    between atoms: _218  and  _219
REMARK   93  A    between atoms: _221  and  _223
REMARK   94  A    between atoms: _223  and  _224
REMARK   95  A    between atoms: _223  and  _226
REMARK   96  A    between atoms: _226  and  _227
REMARK   97  A    between atoms: _233  and  _235
REMARK   98  A    between atoms: _235  and  _236
REMARK   99  A    between atoms: _235  and  _238
REMARK  100  A    between atoms: _238  and  _239
REMARK  101  A    between atoms: _244  and  _245
REMARK  102  A    between atoms: _247  and  _249
REMARK  103  A    between atoms: _249  and  _250
REMARK  104  A    between atoms: _249  and  _252
REMARK  105  A    between atoms: _255  and  _257
REMARK  106  A    between atoms: _257  and  _258
REMARK  107  A    between atoms: _261  and  _263
REMARK  108  A    between atoms: _263  and  _264
REMARK  109  A    between atoms: _263  and  _266
REMARK  110  A    between atoms: _266  and  _267
REMARK                            x       y       z     vdW  Elec       q    Type
REMARK                         _______ _______ _______ _____ _____    ______ ____
ROOT
ATOM      1  O   HOH     1       6.807   9.383  47.487  0.00  0.00    +0.000 OA
ENDROOT
TORSDOF 0
REMARK  Name = ../refined-set-2016/4lkq/4lkq_pocket.pdb
REMARK  110 active torsions:
REMARK  status: ('A' for Active; 'I' for Inactive)
REMARK    1  A    between atoms: _1  and  _3
REMARK    2  A    between atoms: _3  and  _4
REMARK    3  A    between atoms: _3  and  _6
REMARK    4  A    between atoms: _6  and  _7
REMARK    5  A    between atoms: _12  and  _13
REMARK    6  A    between atoms: _15  and  _17
REMARK    7  A    between atoms: _17  and  _18
REMARK    8  A    between atoms: _17  and  _20
REMARK    9  A    between atoms: _20  and  _21
REMARK   10  A    between atoms: _26  and  _28
REMARK   11  A    between atoms: _28  and  _29
REMARK   12  A    between atoms: _28  and  _31
REMARK   13  A    between atoms: _31  and  _32
REMARK   14  A    between atoms: _37  and  _39
REMARK   15  A    between atoms: _39  and  _40
REMARK   16  A    between atoms: _39  and  _42
REMARK   17  A    between atoms: _42  and  _43
REMARK   18  A    between atoms: _46  and  _48
REMARK   19  A    between atoms: _48  and  _49
REMARK   20  A    between atoms: _48  and  _51
REMARK   21  A    between atoms: _51  and  _52
REMARK   22  A    between atoms: _55  and  _57
REMARK   23  A    between atoms: _57  and  _58
REMARK   24  A    between atoms: _57  and  _60
REMARK   25  A    between atoms: _60  and  _61
REMARK   26  A    between atoms: _64  and  _66
REMARK   27  A    between atoms: _66  and  _67
REMARK   28  A    between atoms: _66  and  _69
REMARK   29  A    between atoms: _71  and  _73
REMARK   30  A    between atoms: _73  and  _74
REMARK   31  A    between atoms: _73  and  _76
REMARK   32  A    between atoms: _76  and  _77
REMARK   33  A    between atoms: _79  and  _81
REMARK   34  A    between atoms: _81  and  _82
REMARK   35  A    between atoms: _81  and  _84
REMARK   36  A    between atoms: _87  and  _89
REMARK   37  A    between atoms: _89  and  _90
REMARK   38  A    between atoms: _89  and  _92
REMARK   39  A    between atoms: _92  and  _93
REMARK   40  A    between atoms: _96  and  _98
REMARK   41  A    between atoms: _98  and  _99
REMARK   42  A    between atoms: _98  and  _101
REMARK   43  A    between atoms: _101  and  _102
REMARK   44  A    between atoms: _105  and  _107
REMARK   45  A    between atoms: _107  and  _108
REMARK   46  A    between atoms: _107  and  _110
REMARK   47  A    between atoms: _110  and  _111
REMARK   48  A    between atoms: _114  and  _116
REMARK   49  A    between atoms: _116  and  _117
REMARK   50  A    between atoms: _120  and  _122
REMARK   51  A    between atoms: _122  and  _123
REMARK   52  A    between atoms: _122  and  _125
REMARK   53  A    between atoms: _125  and  _126
REMARK   54  A    between atoms: _129  and  _131
REMARK   55  A    between atoms: _131  and  _132
REMARK   56  A    between atoms: _131  and  _134
REMARK   57  A    between atoms: _134  and  _135
REMARK   58  A    between atoms: _140  and  _141
REMARK   59  A    between atoms: _143  and  _145
REMARK   60  A    between atoms: _145  and  _146
REMARK   61  A    between atoms: _145  and  _148
REMARK   62  A    between atoms: _148  and  _149
REMARK   63  A    between atoms: _155  and  _157
REMARK   64  A    between atoms: _157  and  _158
REMARK   65  A    between atoms: _157  and  _160
REMARK   66  A    between atoms: _160  and  _161
REMARK   67  A    between atoms: _164  and  _166
REMARK   68  A    between atoms: _166  and  _167
REMARK   69  A    between atoms: _166  and  _169
REMARK   70  A    between atoms: _169  and  _170
REMARK   71  A    between atoms: _170  and  _171
REMARK   72  A    between atoms: _173  and  _175
REMARK   73  A    between atoms: _175  and  _176
REMARK   74  A    between atoms: _175  and  _178
REMARK   75  A    between atoms: _178  and  _179
REMARK   76  A    between atoms: _179  and  _180
REMARK   77  A    between atoms: _182  and  _184
REMARK   78  A    between atoms: _184  and  _185
REMARK   79  A    between atoms: _184  and  _187
REMARK   80  A    between atoms: _190  and  _192
REMARK   81  A    between atoms: _192  and  _193
REMARK   82  A    between atoms: _195  and  _197
REMARK   83  A    between atoms: _197  and  _198
REMARK   84  A    between atoms: _197  and  _200
REMARK   85  A    between atoms: _200  and  _201
REMARK   86  A    between atoms: _201  and  _202
REMARK   87  A    between atoms: _207  and  _209
REMARK   88  A    between atoms: _209  and  _210
REMARK   89  A    between atoms: _209  and  _212
REMARK   90  A    between atoms: _212  and  _213
REMARK   91  A    between atoms: _216  and  _218
REMARK   92  A    between atoms: _218  and  _219
REMARK   93  A    between atoms: _221  and  _223
REMARK   94  A    between atoms: _223  and  _224
REMARK   95  A    between atoms: _223  and  _226
REMARK   96  A    between atoms: _226  and  _227
REMARK   97  A    between atoms: _233  and  _235
REMARK   98  A    between atoms: _235  and  _236
REMARK   99  A    between atoms: _235  and  _238
REMARK  100  A    between atoms: _238  and  _239
REMARK  101  A    between atoms: _244  and  _245
REMARK  102  A    between atoms: _247  and  _249
REMARK  103  A    between atoms: _249  and  _250
REMARK  104  A    between atoms: _249  and  _252
REMARK  105  A    between atoms: _255  and  _257
REMARK  106  A    between atoms: _257  and  _258
REMARK  107  A    between atoms: _261  and  _263
REMARK  108  A    between atoms: _263  and  _264
REMARK  109  A    between atoms: _263  and  _266
REMARK  110  A    between atoms: _266  and  _267
REMARK                            x       y       z     vdW  Elec       q    Type
REMARK                         _______ _______ _______ _____ _____    ______ ____
ROOT
ATOM      1  O   HOH     1       1.618  15.585  38.402  0.00  0.00    +0.000 OA
ENDROOT
TORSDOF 0
REMARK  Name = ../refined-set-2016/4lkq/4lkq_pocket.pdb
REMARK  110 active torsions:
REMARK  status: ('A' for Active; 'I' for Inactive)
REMARK    1  A    between atoms: _1  and  _3
REMARK    2  A    between atoms: _3  and  _4
REMARK    3  A    between atoms: _3  and  _6
REMARK    4  A    between atoms: _6  and  _7
REMARK    5  A    between atoms: _12  and  _13
REMARK    6  A    between atoms: _15  and  _17
REMARK    7  A    between atoms: _17  and  _18
REMARK    8  A    between atoms: _17  and  _20
REMARK    9  A    between atoms: _20  and  _21
REMARK   10  A    between atoms: _26  and  _28
REMARK   11  A    between atoms: _28  and  _29
REMARK   12  A    between atoms: _28  and  _31
REMARK   13  A    between atoms: _31  and  _32
REMARK   14  A    between atoms: _37  and  _39
REMARK   15  A    between atoms: _39  and  _40
REMARK   16  A    between atoms: _39  and  _42
REMARK   17  A    between atoms: _42  and  _43
REMARK   18  A    between atoms: _46  and  _48
REMARK   19  A    between atoms: _48  and  _49
REMARK   20  A    between atoms: _48  and  _51
REMARK   21  A    between atoms: _51  and  _52
REMARK   22  A    between atoms: _55  and  _57
REMARK   23  A    between atoms: _57  and  _58
REMARK   24  A    between atoms: _57  and  _60
REMARK   25  A    between atoms: _60  and  _61
REMARK   26  A    between atoms: _64  and  _66
REMARK   27  A    between atoms: _66  and  _67
REMARK   28  A    between atoms: _66  and  _69
REMARK   29  A    between atoms: _71  and  _73
REMARK   30  A    between atoms: _73  and  _74
REMARK   31  A    between atoms: _73  and  _76
REMARK   32  A    between atoms: _76  and  _77
REMARK   33  A    between atoms: _79  and  _81
REMARK   34  A    between atoms: _81  and  _82
REMARK   35  A    between atoms: _81  and  _84
REMARK   36  A    between atoms: _87  and  _89
REMARK   37  A    between atoms: _89  and  _90
REMARK   38  A    between atoms: _89  and  _92
REMARK   39  A    between atoms: _92  and  _93
REMARK   40  A    between atoms: _96  and  _98
REMARK   41  A    between atoms: _98  and  _99
REMARK   42  A    between atoms: _98  and  _101
REMARK   43  A    between atoms: _101  and  _102
REMARK   44  A    between atoms: _105  and  _107
REMARK   45  A    between atoms: _107  and  _108
REMARK   46  A    between atoms: _107  and  _110
REMARK   47  A    between atoms: _110  and  _111
REMARK   48  A    between atoms: _114  and  _116
REMARK   49  A    between atoms: _116  and  _117
REMARK   50  A    between atoms: _120  and  _122
REMARK   51  A    between atoms: _122  and  _123
REMARK   52  A    between atoms: _122  and  _125
REMARK   53  A    between atoms: _125  and  _126
REMARK   54  A    between atoms: _129  and  _131
REMARK   55  A    between atoms: _131  and  _132
REMARK   56  A    between atoms: _131  and  _134
REMARK   57  A    between atoms: _134  and  _135
REMARK   58  A    between atoms: _140  and  _141
REMARK   59  A    between atoms: _143  and  _145
REMARK   60  A    between atoms: _145  and  _146
REMARK   61  A    between atoms: _145  and  _148
REMARK   62  A    between atoms: _148  and  _149
REMARK   63  A    between atoms: _155  and  _157
REMARK   64  A    between atoms: _157  and  _158
REMARK   65  A    between atoms: _157  and  _160
REMARK   66  A    between atoms: _160  and  _161
REMARK   67  A    between atoms: _164  and  _166
REMARK   68  A    between atoms: _166  and  _167
REMARK   69  A    between atoms: _166  and  _169
REMARK   70  A    between atoms: _169  and  _170
REMARK   71  A    between atoms: _170  and  _171
REMARK   72  A    between atoms: _173  and  _175
REMARK   73  A    between atoms: _175  and  _176
REMARK   74  A    between atoms: _175  and  _178
REMARK   75  A    between atoms: _178  and  _179
REMARK   76  A    between atoms: _179  and  _180
REMARK   77  A    between atoms: _182  and  _184
REMARK   78  A    between atoms: _184  and  _185
REMARK   79  A    between atoms: _184  and  _187
REMARK   80  A    between atoms: _190  and  _192
REMARK   81  A    between atoms: _192  and  _193
REMARK   82  A    between atoms: _195  and  _197
REMARK   83  A    between atoms: _197  and  _198
REMARK   84  A    between atoms: _197  and  _200
REMARK   85  A    between atoms: _200  and  _201
REMARK   86  A    between atoms: _201  and  _202
REMARK   87  A    between atoms: _207  and  _209
REMARK   88  A    between atoms: _209  and  _210
REMARK   89  A    between atoms: _209  and  _212
REMARK   90  A    between atoms: _212  and  _213
REMARK   91  A    between atoms: _216  and  _218
REMARK   92  A    between atoms: _218  and  _219
REMARK   93  A    between atoms: _221  and  _223
REMARK   94  A    between atoms: _223  and  _224
REMARK   95  A    between atoms: _223  and  _226
REMARK   96  A    between atoms: _226  and  _227
REMARK   97  A    between atoms: _233  and  _235
REMARK   98  A    between atoms: _235  and  _236
REMARK   99  A    between atoms: _235  and  _238
REMARK  100  A    between atoms: _238  and  _239
REMARK  101  A    between atoms: _244  and  _245
REMARK  102  A    between atoms: _247  and  _249
REMARK  103  A    between atoms: _249  and  _250
REMARK  104  A    between atoms: _249  and  _252
REMARK  105  A    between atoms: _255  and  _257
REMARK  106  A    between atoms: _257  and  _258
REMARK  107  A    between atoms: _261  and  _263
REMARK  108  A    between atoms: _263  and  _264
REMARK  109  A    between atoms: _263  and  _266
REMARK  110  A    between atoms: _266  and  _267
REMARK                            x       y       z     vdW  Elec       q    Type
REMARK                         _______ _______ _______ _____ _____    ______ ____
ROOT
ATOM      1  O   HOH     1      10.203   6.401  44.146  0.00  0.00    +0.000 OA
ENDROOT
TORSDOF 0
REMARK  Name = ../refined-set-2016/4lkq/4lkq_pocket.pdb
REMARK  110 active torsions:
REMARK  status: ('A' for Active; 'I' for Inactive)
REMARK    1  A    between atoms: _1  and  _3
REMARK    2  A    between atoms: _3  and  _4
REMARK    3  A    between atoms: _3  and  _6
REMARK    4  A    between atoms: _6  and  _7
REMARK    5  A    between atoms: _12  and  _13
REMARK    6  A    between atoms: _15  and  _17
REMARK    7  A    between atoms: _17  and  _18
REMARK    8  A    between atoms: _17  and  _20
REMARK    9  A    between atoms: _20  and  _21
REMARK   10  A    between atoms: _26  and  _28
REMARK   11  A    between atoms: _28  and  _29
REMARK   12  A    between atoms: _28  and  _31
REMARK   13  A    between atoms: _31  and  _32
REMARK   14  A    between atoms: _37  and  _39
REMARK   15  A    between atoms: _39  and  _40
REMARK   16  A    between atoms: _39  and  _42
REMARK   17  A    between atoms: _42  and  _43
REMARK   18  A    between atoms: _46  and  _48
REMARK   19  A    between atoms: _48  and  _49
REMARK   20  A    between atoms: _48  and  _51
REMARK   21  A    between atoms: _51  and  _52
REMARK   22  A    between atoms: _55  and  _57
REMARK   23  A    between atoms: _57  and  _58
REMARK   24  A    between atoms: _57  and  _60
REMARK   25  A    between atoms: _60  and  _61
REMARK   26  A    between atoms: _64  and  _66
REMARK   27  A    between atoms: _66  and  _67
REMARK   28  A    between atoms: _66  and  _69
REMARK   29  A    between atoms: _71  and  _73
REMARK   30  A    between atoms: _73  and  _74
REMARK   31  A    between atoms: _73  and  _76
REMARK   32  A    between atoms: _76  and  _77
REMARK   33  A    between atoms: _79  and  _81
REMARK   34  A    between atoms: _81  and  _82
REMARK   35  A    between atoms: _81  and  _84
REMARK   36  A    between atoms: _87  and  _89
REMARK   37  A    between atoms: _89  and  _90
REMARK   38  A    between atoms: _89  and  _92
REMARK   39  A    between atoms: _92  and  _93
REMARK   40  A    between atoms: _96  and  _98
REMARK   41  A    between atoms: _98  and  _99
REMARK   42  A    between atoms: _98  and  _101
REMARK   43  A    between atoms: _101  and  _102
REMARK   44  A    between atoms: _105  and  _107
REMARK   45  A    between atoms: _107  and  _108
REMARK   46  A    between atoms: _107  and  _110
REMARK   47  A    between atoms: _110  and  _111
REMARK   48  A    between atoms: _114  and  _116
REMARK   49  A    between atoms: _116  and  _117
REMARK   50  A    between atoms: _120  and  _122
REMARK   51  A    between atoms: _122  and  _123
REMARK   52  A    between atoms: _122  and  _125
REMARK   53  A    between atoms: _125  and  _126
REMARK   54  A    between atoms: _129  and  _131
REMARK   55  A    between atoms: _131  and  _132
REMARK   56  A    between atoms: _131  and  _134
REMARK   57  A    between atoms: _134  and  _135
REMARK   58  A    between atoms: _140  and  _141
REMARK   59  A    between atoms: _143  and  _145
REMARK   60  A    between atoms: _145  and  _146
REMARK   61  A    between atoms: _145  and  _148
REMARK   62  A    between atoms: _148  and  _149
REMARK   63  A    between atoms: _155  and  _157
REMARK   64  A    between atoms: _157  and  _158
REMARK   65  A    between atoms: _157  and  _160
REMARK   66  A    between atoms: _160  and  _161
REMARK   67  A    between atoms: _164  and  _166
REMARK   68  A    between atoms: _166  and  _167
REMARK   69  A    between atoms: _166  and  _169
REMARK   70  A    between atoms: _169  and  _170
REMARK   71  A    between atoms: _170  and  _171
REMARK   72  A    between atoms: _173  and  _175
REMARK   73  A    between atoms: _175  and  _176
REMARK   74  A    between atoms: _175  and  _178
REMARK   75  A    between atoms: _178  and  _179
REMARK   76  A    between atoms: _179  and  _180
REMARK   77  A    between atoms: _182  and  _184
REMARK   78  A    between atoms: _184  and  _185
REMARK   79  A    between atoms: _184  and  _187
REMARK   80  A    between atoms: _190  and  _192
REMARK   81  A    between atoms: _192  and  _193
REMARK   82  A    between atoms: _195  and  _197
REMARK   83  A    between atoms: _197  and  _198
REMARK   84  A    between atoms: _197  and  _200
REMARK   85  A    between atoms: _200  and  _201
REMARK   86  A    between atoms: _201  and  _202
REMARK   87  A    between atoms: _207  and  _209
REMARK   88  A    between atoms: _209  and  _210
REMARK   89  A    between atoms: _209  and  _212
REMARK   90  A    between atoms: _212  and  _213
REMARK   91  A    between atoms: _216  and  _218
REMARK   92  A    between atoms: _218  and  _219
REMARK   93  A    between atoms: _221  and  _223
REMARK   94  A    between atoms: _223  and  _224
REMARK   95  A    between atoms: _223  and  _226
REMARK   96  A    between atoms: _226  and  _227
REMARK   97  A    between atoms: _233  and  _235
REMARK   98  A    between atoms: _235  and  _236
REMARK   99  A    between atoms: _235  and  _238
REMARK  100  A    between atoms: _238  and  _239
REMARK  101  A    between atoms: _244  and  _245
REMARK  102  A    between atoms: _247  and  _249
REMARK  103  A    between atoms: _249  and  _250
REMARK  104  A    between atoms: _249  and  _252
REMARK  105  A    between atoms: _255  and  _257
REMARK  106  A    between atoms: _257  and  _258
REMARK  107  A    between atoms: _261  and  _263
REMARK  108  A    between atoms: _263  and  _264
REMARK  109  A    between atoms: _263  and  _266
REMARK  110  A    between atoms: _266  and  _267
REMARK                            x       y       z     vdW  Elec       q    Type
REMARK                         _______ _______ _______ _____ _____    ______ ____
ROOT
ATOM      1  O   HOH     1       7.808   9.375  41.465  0.00  0.00    +0.000 OA
ENDROOT
TORSDOF 0
REMARK  Name = ../refined-set-2016/4lkq/4lkq_pocket.pdb
REMARK  110 active torsions:
REMARK  status: ('A' for Active; 'I' for Inactive)
REMARK    1  A    between atoms: _1  and  _3
REMARK    2  A    between atoms: _3  and  _4
REMARK    3  A    between atoms: _3  and  _6
REMARK    4  A    between atoms: _6  and  _7
REMARK    5  A    between atoms: _12  and  _13
REMARK    6  A    between atoms: _15  and  _17
REMARK    7  A    between atoms: _17  and  _18
REMARK    8  A    between atoms: _17  and  _20
REMARK    9  A    between atoms: _20  and  _21
REMARK   10  A    between atoms: _26  and  _28
REMARK   11  A    between atoms: _28  and  _29
REMARK   12  A    between atoms: _28  and  _31
REMARK   13  A    between atoms: _31  and  _32
REMARK   14  A    between atoms: _37  and  _39
REMARK   15  A    between atoms: _39  and  _40
REMARK   16  A    between atoms: _39  and  _42
REMARK   17  A    between atoms: _42  and  _43
REMARK   18  A    between atoms: _46  and  _48
REMARK   19  A    between atoms: _48  and  _49
REMARK   20  A    between atoms: _48  and  _51
REMARK   21  A    between atoms: _51  and  _52
REMARK   22  A    between atoms: _55  and  _57
REMARK   23  A    between atoms: _57  and  _58
REMARK   24  A    between atoms: _57  and  _60
REMARK   25  A    between atoms: _60  and  _61
REMARK   26  A    between atoms: _64  and  _66
REMARK   27  A    between atoms: _66  and  _67
REMARK   28  A    between atoms: _66  and  _69
REMARK   29  A    between atoms: _71  and  _73
REMARK   30  A    between atoms: _73  and  _74
REMARK   31  A    between atoms: _73  and  _76
REMARK   32  A    between atoms: _76  and  _77
REMARK   33  A    between atoms: _79  and  _81
REMARK   34  A    between atoms: _81  and  _82
REMARK   35  A    between atoms: _81  and  _84
REMARK   36  A    between atoms: _87  and  _89
REMARK   37  A    between atoms: _89  and  _90
REMARK   38  A    between atoms: _89  and  _92
REMARK   39  A    between atoms: _92  and  _93
REMARK   40  A    between atoms: _96  and  _98
REMARK   41  A    between atoms: _98  and  _99
REMARK   42  A    between atoms: _98  and  _101
REMARK   43  A    between atoms: _101  and  _102
REMARK   44  A    between atoms: _105  and  _107
REMARK   45  A    between atoms: _107  and  _108
REMARK   46  A    between atoms: _107  and  _110
REMARK   47  A    between atoms: _110  and  _111
REMARK   48  A    between atoms: _114  and  _116
REMARK   49  A    between atoms: _116  and  _117
REMARK   50  A    between atoms: _120  and  _122
REMARK   51  A    between atoms: _122  and  _123
REMARK   52  A    between atoms: _122  and  _125
REMARK   53  A    between atoms: _125  and  _126
REMARK   54  A    between atoms: _129  and  _131
REMARK   55  A    between atoms: _131  and  _132
REMARK   56  A    between atoms: _131  and  _134
REMARK   57  A    between atoms: _134  and  _135
REMARK   58  A    between atoms: _140  and  _141
REMARK   59  A    between atoms: _143  and  _145
REMARK   60  A    between atoms: _145  and  _146
REMARK   61  A    between atoms: _145  and  _148
REMARK   62  A    between atoms: _148  and  _149
REMARK   63  A    between atoms: _155  and  _157
REMARK   64  A    between atoms: _157  and  _158
REMARK   65  A    between atoms: _157  and  _160
REMARK   66  A    between atoms: _160  and  _161
REMARK   67  A    between atoms: _164  and  _166
REMARK   68  A    between atoms: _166  and  _167
REMARK   69  A    between atoms: _166  and  _169
REMARK   70  A    between atoms: _169  and  _170
REMARK   71  A    between atoms: _170  and  _171
REMARK   72  A    between atoms: _173  and  _175
REMARK   73  A    between atoms: _175  and  _176
REMARK   74  A    between atoms: _175  and  _178
REMARK   75  A    between atoms: _178  and  _179
REMARK   76  A    between atoms: _179  and  _180
REMARK   77  A    between atoms: _182  and  _184
REMARK   78  A    between atoms: _184  and  _185
REMARK   79  A    between atoms: _184  and  _187
REMARK   80  A    between atoms: _190  and  _192
REMARK   81  A    between atoms: _192  and  _193
REMARK   82  A    between atoms: _195  and  _197
REMARK   83  A    between atoms: _197  and  _198
REMARK   84  A    between atoms: _197  and  _200
REMARK   85  A    between atoms: _200  and  _201
REMARK   86  A    between atoms: _201  and  _202
REMARK   87  A    between atoms: _207  and  _209
REMARK   88  A    between atoms: _209  and  _210
REMARK   89  A    between atoms: _209  and  _212
REMARK   90  A    between atoms: _212  and  _213
REMARK   91  A    between atoms: _216  and  _218
REMARK   92  A    between atoms: _218  and  _219
REMARK   93  A    between atoms: _221  and  _223
REMARK   94  A    between atoms: _223  and  _224
REMARK   95  A    between atoms: _223  and  _226
REMARK   96  A    between atoms: _226  and  _227
REMARK   97  A    between atoms: _233  and  _235
REMARK   98  A    between atoms: _235  and  _236
REMARK   99  A    between atoms: _235  and  _238
REMARK  100  A    between atoms: _238  and  _239
REMARK  101  A    between atoms: _244  and  _245
REMARK  102  A    between atoms: _247  and  _249
REMARK  103  A    between atoms: _249  and  _250
REMARK  104  A    between atoms: _249  and  _252
REMARK  105  A    between atoms: _255  and  _257
REMARK  106  A    between atoms: _257  and  _258
REMARK  107  A    between atoms: _261  and  _263
REMARK  108  A    between atoms: _263  and  _264
REMARK  109  A    between atoms: _263  and  _266
REMARK  110  A    between atoms: _266  and  _267
REMARK                            x       y       z     vdW  Elec       q    Type
REMARK                         _______ _______ _______ _____ _____    ______ ____
ROOT
ATOM      1  O   HOH     1       7.026   6.387  44.444  0.00  0.00    +0.000 OA
ENDROOT
TORSDOF 0
REMARK  Name = ../refined-set-2016/4lkq/4lkq_pocket.pdb
REMARK  110 active torsions:
REMARK  status: ('A' for Active; 'I' for Inactive)
REMARK    1  A    between atoms: _1  and  _3
REMARK    2  A    between atoms: _3  and  _4
REMARK    3  A    between atoms: _3  and  _6
REMARK    4  A    between atoms: _6  and  _7
REMARK    5  A    between atoms: _12  and  _13
REMARK    6  A    between atoms: _15  and  _17
REMARK    7  A    between atoms: _17  and  _18
REMARK    8  A    between atoms: _17  and  _20
REMARK    9  A    between atoms: _20  and  _21
REMARK   10  A    between atoms: _26  and  _28
REMARK   11  A    between atoms: _28  and  _29
REMARK   12  A    between atoms: _28  and  _31
REMARK   13  A    between atoms: _31  and  _32
REMARK   14  A    between atoms: _37  and  _39
REMARK   15  A    between atoms: _39  and  _40
REMARK   16  A    between atoms: _39  and  _42
REMARK   17  A    between atoms: _42  and  _43
REMARK   18  A    between atoms: _46  and  _48
REMARK   19  A    between atoms: _48  and  _49
REMARK   20  A    between atoms: _48  and  _51
REMARK   21  A    between atoms: _51  and  _52
REMARK   22  A    between atoms: _55  and  _57
REMARK   23  A    between atoms: _57  and  _58
REMARK   24  A    between atoms: _57  and  _60
REMARK   25  A    between atoms: _60  and  _61
REMARK   26  A    between atoms: _64  and  _66
REMARK   27  A    between atoms: _66  and  _67
REMARK   28  A    between atoms: _66  and  _69
REMARK   29  A    between atoms: _71  and  _73
REMARK   30  A    between atoms: _73  and  _74
REMARK   31  A    between atoms: _73  and  _76
REMARK   32  A    between atoms: _76  and  _77
REMARK   33  A    between atoms: _79  and  _81
REMARK   34  A    between atoms: _81  and  _82
REMARK   35  A    between atoms: _81  and  _84
REMARK   36  A    between atoms: _87  and  _89
REMARK   37  A    between atoms: _89  and  _90
REMARK   38  A    between atoms: _89  and  _92
REMARK   39  A    between atoms: _92  and  _93
REMARK   40  A    between atoms: _96  and  _98
REMARK   41  A    between atoms: _98  and  _99
REMARK   42  A    between atoms: _98  and  _101
REMARK   43  A    between atoms: _101  and  _102
REMARK   44  A    between atoms: _105  and  _107
REMARK   45  A    between atoms: _107  and  _108
REMARK   46  A    between atoms: _107  and  _110
REMARK   47  A    between atoms: _110  and  _111
REMARK   48  A    between atoms: _114  and  _116
REMARK   49  A    between atoms: _116  and  _117
REMARK   50  A    between atoms: _120  and  _122
REMARK   51  A    between atoms: _122  and  _123
REMARK   52  A    between atoms: _122  and  _125
REMARK   53  A    between atoms: _125  and  _126
REMARK   54  A    between atoms: _129  and  _131
REMARK   55  A    between atoms: _131  and  _132
REMARK   56  A    between atoms: _131  and  _134
REMARK   57  A    between atoms: _134  and  _135
REMARK   58  A    between atoms: _140  and  _141
REMARK   59  A    between atoms: _143  and  _145
REMARK   60  A    between atoms: _145  and  _146
REMARK   61  A    between atoms: _145  and  _148
REMARK   62  A    between atoms: _148  and  _149
REMARK   63  A    between atoms: _155  and  _157
REMARK   64  A    between atoms: _157  and  _158
REMARK   65  A    between atoms: _157  and  _160
REMARK   66  A    between atoms: _160  and  _161
REMARK   67  A    between atoms: _164  and  _166
REMARK   68  A    between atoms: _166  and  _167
REMARK   69  A    between atoms: _166  and  _169
REMARK   70  A    between atoms: _169  and  _170
REMARK   71  A    between atoms: _170  and  _171
REMARK   72  A    between atoms: _173  and  _175
REMARK   73  A    between atoms: _175  and  _176
REMARK   74  A    between atoms: _175  and  _178
REMARK   75  A    between atoms: _178  and  _179
REMARK   76  A    between atoms: _179  and  _180
REMARK   77  A    between atoms: _182  and  _184
REMARK   78  A    between atoms: _184  and  _185
REMARK   79  A    between atoms: _184  and  _187
REMARK   80  A    between atoms: _190  and  _192
REMARK   81  A    between atoms: _192  and  _193
REMARK   82  A    between atoms: _195  and  _197
REMARK   83  A    between atoms: _197  and  _198
REMARK   84  A    between atoms: _197  and  _200
REMARK   85  A    between atoms: _200  and  _201
REMARK   86  A    between atoms: _201  and  _202
REMARK   87  A    between atoms: _207  and  _209
REMARK   88  A    between atoms: _209  and  _210
REMARK   89  A    between atoms: _209  and  _212
REMARK   90  A    between atoms: _212  and  _213
REMARK   91  A    between atoms: _216  and  _218
REMARK   92  A    between atoms: _218  and  _219
REMARK   93  A    between atoms: _221  and  _223
REMARK   94  A    between atoms: _223  and  _224
REMARK   95  A    between atoms: _223  and  _226
REMARK   96  A    between atoms: _226  and  _227
REMARK   97  A    between atoms: _233  and  _235
REMARK   98  A    between atoms: _235  and  _236
REMARK   99  A    between atoms: _235  and  _238
REMARK  100  A    between atoms: _238  and  _239
REMARK  101  A    between atoms: _244  and  _245
REMARK  102  A    between atoms: _247  and  _249
REMARK  103  A    between atoms: _249  and  _250
REMARK  104  A    between atoms: _249  and  _252
REMARK  105  A    between atoms: _255  and  _257
REMARK  106  A    between atoms: _257  and  _258
REMARK  107  A    between atoms: _261  and  _263
REMARK  108  A    between atoms: _263  and  _264
REMARK  109  A    between atoms: _263  and  _266
REMARK  110  A    between atoms: _266  and  _267
REMARK                            x       y       z     vdW  Elec       q    Type
REMARK                         _______ _______ _______ _____ _____    ______ ____
ROOT
ATOM      1  O   HOH     1      12.715  11.110  41.033  0.00  0.00    +0.000 OA
ENDROOT
TORSDOF 0
