REMARK  Name = ../refined-set-2016/1tmn/1tmn_pocket.pdb
REMARK  159 active torsions:
REMARK  status: ('A' for Active; 'I' for Inactive)
REMARK    1  A    between atoms: _1  and  _3
REMARK    2  A    between atoms: _3  and  _4
REMARK    3  A    between atoms: _3  and  _6
REMARK    4  A    between atoms: _6  and  _7
REMARK    5  A    between atoms: _12  and  _13
REMARK    6  A    between atoms: _15  and  _17
REMARK    7  A    between atoms: _17  and  _18
REMARK    8  A    between atoms: _17  and  _20
REMARK    9  A    between atoms: _20  and  _21
REMARK   10  A    between atoms: _26  and  _27
REMARK   11  A    between atoms: _29  and  _31
REMARK   12  A    between atoms: _31  and  _32
REMARK   13  A    between atoms: _31  and  _34
REMARK   14  A    between atoms: _34  and  _35
REMARK   15  A    between atoms: _40  and  _42
REMARK   16  A    between atoms: _42  and  _43
REMARK   17  A    between atoms: _42  and  _45
REMARK   18  A    between atoms: _45  and  _46
REMARK   19  A    between atoms: _51  and  _53
REMARK   20  A    between atoms: _53  and  _54
REMARK   21  A    between atoms: _57  and  _59
REMARK   22  A    between atoms: _59  and  _60
REMARK   23  A    between atoms: _59  and  _62
REMARK   24  A    between atoms: _62  and  _63
REMARK   25  A    between atoms: _69  and  _71
REMARK   26  A    between atoms: _71  and  _72
REMARK   27  A    between atoms: _71  and  _74
REMARK   28  A    between atoms: _74  and  _75
REMARK   29  A    between atoms: _85  and  _87
REMARK   30  A    between atoms: _87  and  _88
REMARK   31  A    between atoms: _87  and  _90
REMARK   32  A    between atoms: _93  and  _95
REMARK   33  A    between atoms: _95  and  _96
REMARK   34  A    between atoms: _95  and  _98
REMARK   35  A    between atoms: _98  and  _99
REMARK   36  A    between atoms: _104  and  _105
REMARK   37  A    between atoms: _107  and  _109
REMARK   38  A    between atoms: _109  and  _110
REMARK   39  A    between atoms: _109  and  _112
REMARK   40  A    between atoms: _112  and  _113
REMARK   41  A    between atoms: _116  and  _118
REMARK   42  A    between atoms: _118  and  _119
REMARK   43  A    between atoms: _118  and  _121
REMARK   44  A    between atoms: _121  and  _122
REMARK   45  A    between atoms: _128  and  _130
REMARK   46  A    between atoms: _130  and  _131
REMARK   47  A    between atoms: _130  and  _133
REMARK   48  A    between atoms: _133  and  _134
REMARK   49  A    between atoms: _137  and  _139
REMARK   50  A    between atoms: _139  and  _140
REMARK   51  A    between atoms: _142  and  _144
REMARK   52  A    between atoms: _144  and  _145
REMARK   53  A    between atoms: _144  and  _147
REMARK   54  A    between atoms: _147  and  _148
REMARK   55  A    between atoms: _151  and  _153
REMARK   56  A    between atoms: _153  and  _154
REMARK   57  A    between atoms: _153  and  _156
REMARK   58  A    between atoms: _159  and  _161
REMARK   59  A    between atoms: _161  and  _162
REMARK   60  A    between atoms: _161  and  _164
REMARK   61  A    between atoms: _167  and  _169
REMARK   62  A    between atoms: _169  and  _170
REMARK   63  A    between atoms: _173  and  _175
REMARK   64  A    between atoms: _175  and  _176
REMARK   65  A    between atoms: _175  and  _178
REMARK   66  A    between atoms: _178  and  _179
REMARK   67  A    between atoms: _183  and  ZN_399
REMARK   68  A    between atoms: _184  and  _186
REMARK   69  A    between atoms: _186  and  _187
REMARK   70  A    between atoms: _186  and  _189
REMARK   71  A    between atoms: _189  and  _190
REMARK   72  A    between atoms: _190  and  _191
REMARK   73  A    between atoms: _194  and  _196
REMARK   74  A    between atoms: _196  and  _197
REMARK   75  A    between atoms: _196  and  _199
REMARK   76  A    between atoms: _199  and  _200
REMARK   77  A    between atoms: _203  and  _205
REMARK   78  A    between atoms: _205  and  _206
REMARK   79  A    between atoms: _205  and  _208
REMARK   80  A    between atoms: _208  and  _209
REMARK   81  A    between atoms: _213  and  ZN_399
REMARK   82  A    between atoms: _214  and  _216
REMARK   83  A    between atoms: _216  and  _217
REMARK   84  A    between atoms: _216  and  _219
REMARK   85  A    between atoms: _219  and  _220
REMARK   86  A    between atoms: _225  and  _226
REMARK   87  A    between atoms: _228  and  _230
REMARK   88  A    between atoms: _230  and  _231
REMARK   89  A    between atoms: _233  and  _235
REMARK   90  A    between atoms: _235  and  _236
REMARK   91  A    between atoms: _235  and  _238
REMARK   92  A    between atoms: _238  and  _239
REMARK   93  A    between atoms: _244  and  _246
REMARK   94  A    between atoms: _246  and  _247
REMARK   95  A    between atoms: _246  and  _249
REMARK   96  A    between atoms: _249  and  _250
REMARK   97  A    between atoms: _250  and  _251
REMARK   98  A    between atoms: _251  and  _252
REMARK   99  A    between atoms: _252  and  ZN_399
REMARK  100  A    between atoms: _254  and  _256
REMARK  101  A    between atoms: _256  and  _257
REMARK  102  A    between atoms: _256  and  _259
REMARK  103  A    between atoms: _259  and  _260
REMARK  104  A    between atoms: _262  and  _264
REMARK  105  A    between atoms: _264  and  _265
REMARK  106  A    between atoms: _264  and  _267
REMARK  107  A    between atoms: _267  and  _268
REMARK  108  A    between atoms: _271  and  _273
REMARK  109  A    between atoms: _273  and  _274
REMARK  110  A    between atoms: _273  and  _276
REMARK  111  A    between atoms: _276  and  _277
REMARK  112  A    between atoms: _280  and  _282
REMARK  113  A    between atoms: _282  and  _283
REMARK  114  A    between atoms: _285  and  _287
REMARK  115  A    between atoms: _287  and  _288
REMARK  116  A    between atoms: _287  and  _290
REMARK  117  A    between atoms: _290  and  _291
REMARK  118  A    between atoms: _291  and  _292
REMARK  119  A    between atoms: _295  and  _297
REMARK  120  A    between atoms: _297  and  _298
REMARK  121  A    between atoms: _297  and  _300
REMARK  122  A    between atoms: _303  and  _305
REMARK  123  A    between atoms: _305  and  _306
REMARK  124  A    between atoms: _305  and  _308
REMARK  125  A    between atoms: _308  and  _309
REMARK  126  A    between atoms: _314  and  _315
REMARK  127  A    between atoms: _317  and  _319
REMARK  128  A    between atoms: _319  and  _320
REMARK  129  A    between atoms: _319  and  _322
REMARK  130  A    between atoms: _322  and  _323
REMARK  131  A    between atoms: _326  and  _328
REMARK  132  A    between atoms: _328  and  _329
REMARK  133  A    between atoms: _328  and  _331
REMARK  134  A    between atoms: _331  and  _332
REMARK  135  A    between atoms: _332  and  _333
REMARK  136  A    between atoms: _333  and  _334
REMARK  137  A    between atoms: _343  and  _345
REMARK  138  A    between atoms: _345  and  _346
REMARK  139  A    between atoms: _345  and  _348
REMARK  140  A    between atoms: _348  and  _349
REMARK  141  A    between atoms: _352  and  _354
REMARK  142  A    between atoms: _354  and  _355
REMARK  143  A    between atoms: _354  and  _357
REMARK  144  A    between atoms: _357  and  _358
REMARK  145  A    between atoms: _363  and  _365
REMARK  146  A    between atoms: _365  and  _366
REMARK  147  A    between atoms: _365  and  _368
REMARK  148  A    between atoms: _371  and  _373
REMARK  149  A    between atoms: _373  and  _374
REMARK  150  A    between atoms: _373  and  _376
REMARK  151  A    between atoms: _376  and  _377
REMARK  152  A    between atoms: _382  and  _384
REMARK  153  A    between atoms: _384  and  _385
REMARK  154  A    between atoms: _384  and  _387
REMARK  155  A    between atoms: _387  and  _388
REMARK  156  A    between atoms: _391  and  _393
REMARK  157  A    between atoms: _393  and  _394
REMARK  158  A    between atoms: _393  and  _396
REMARK  159  A    between atoms: _396  and  _397
REMARK                            x       y       z     vdW  Elec       q    Type
REMARK                         _______ _______ _______ _____ _____    ______ ____
ROOT
ATOM      1  CG  TYR A   1      39.980  19.279  -1.685  0.00  0.00    -0.020 A 
ATOM      2  CD2 TYR A   1      40.702  18.131  -1.935  0.00  0.00    -0.001 A 
ATOM      3  CE2 TYR A   1      40.540  17.447  -3.140  0.00  0.00    +0.036 A 
ATOM      4  CZ  TYR A   1      39.665  17.940  -4.084  0.00  0.00    +0.134 A 
ATOM      5  CE1 TYR A   1      38.963  19.108  -3.835  0.00  0.00    +0.036 A 
ATOM      6  CD1 TYR A   1      39.119  19.764  -2.631  0.00  0.00    -0.001 A 
ENDROOT
BRANCH   4   7
ATOM      7  OH  TYR A   1      39.519  17.289  -5.361  0.00  0.00    -0.506 OA
ATOM      8  HH  TYR A   1      39.213  16.358  -5.222  0.00  0.00    +0.292 HD
ENDBRANCH   4   7
BRANCH   1   9
ATOM      9  CB  TYR A   1      40.128  20.018  -0.351  0.00  0.00    +0.051 C 
BRANCH   9  10
ATOM     10  CA  TYR A   1      39.094  19.605   0.687  0.00  0.00    +0.137 C 
BRANCH  10  11
ATOM     11  N   TYR A   1      39.443  20.253   1.944  0.00  0.00    -0.239 NA
ATOM     12  H   TYR A   1      40.403  20.633   2.070  0.00  0.00    +0.142 HD
ENDBRANCH  10  11
BRANCH  10  13
ATOM     13  C   TYR A   1      39.135  18.088   0.821  0.00  0.00    +0.224 C 
ATOM     14  O   TYR A   1      40.118  17.521   1.378  0.00  0.00    -0.287 OA
ENDBRANCH  10  13
ENDBRANCH   9  10
ENDBRANCH   1   9
TORSDOF 5
REMARK  Name = ../refined-set-2016/1tmn/1tmn_pocket.pdb
REMARK  159 active torsions:
REMARK  status: ('A' for Active; 'I' for Inactive)
REMARK    1  A    between atoms: _1  and  _3
REMARK    2  A    between atoms: _3  and  _4
REMARK    3  A    between atoms: _3  and  _6
REMARK    4  A    between atoms: _6  and  _7
REMARK    5  A    between atoms: _12  and  _13
REMARK    6  A    between atoms: _15  and  _17
REMARK    7  A    between atoms: _17  and  _18
REMARK    8  A    between atoms: _17  and  _20
REMARK    9  A    between atoms: _20  and  _21
REMARK   10  A    between atoms: _26  and  _27
REMARK   11  A    between atoms: _29  and  _31
REMARK   12  A    between atoms: _31  and  _32
REMARK   13  A    between atoms: _31  and  _34
REMARK   14  A    between atoms: _34  and  _35
REMARK   15  A    between atoms: _40  and  _42
REMARK   16  A    between atoms: _42  and  _43
REMARK   17  A    between atoms: _42  and  _45
REMARK   18  A    between atoms: _45  and  _46
REMARK   19  A    between atoms: _51  and  _53
REMARK   20  A    between atoms: _53  and  _54
REMARK   21  A    between atoms: _57  and  _59
REMARK   22  A    between atoms: _59  and  _60
REMARK   23  A    between atoms: _59  and  _62
REMARK   24  A    between atoms: _62  and  _63
REMARK   25  A    between atoms: _69  and  _71
REMARK   26  A    between atoms: _71  and  _72
REMARK   27  A    between atoms: _71  and  _74
REMARK   28  A    between atoms: _74  and  _75
REMARK   29  A    between atoms: _85  and  _87
REMARK   30  A    between atoms: _87  and  _88
REMARK   31  A    between atoms: _87  and  _90
REMARK   32  A    between atoms: _93  and  _95
REMARK   33  A    between atoms: _95  and  _96
REMARK   34  A    between atoms: _95  and  _98
REMARK   35  A    between atoms: _98  and  _99
REMARK   36  A    between atoms: _104  and  _105
REMARK   37  A    between atoms: _107  and  _109
REMARK   38  A    between atoms: _109  and  _110
REMARK   39  A    between atoms: _109  and  _112
REMARK   40  A    between atoms: _112  and  _113
REMARK   41  A    between atoms: _116  and  _118
REMARK   42  A    between atoms: _118  and  _119
REMARK   43  A    between atoms: _118  and  _121
REMARK   44  A    between atoms: _121  and  _122
REMARK   45  A    between atoms: _128  and  _130
REMARK   46  A    between atoms: _130  and  _131
REMARK   47  A    between atoms: _130  and  _133
REMARK   48  A    between atoms: _133  and  _134
REMARK   49  A    between atoms: _137  and  _139
REMARK   50  A    between atoms: _139  and  _140
REMARK   51  A    between atoms: _142  and  _144
REMARK   52  A    between atoms: _144  and  _145
REMARK   53  A    between atoms: _144  and  _147
REMARK   54  A    between atoms: _147  and  _148
REMARK   55  A    between atoms: _151  and  _153
REMARK   56  A    between atoms: _153  and  _154
REMARK   57  A    between atoms: _153  and  _156
REMARK   58  A    between atoms: _159  and  _161
REMARK   59  A    between atoms: _161  and  _162
REMARK   60  A    between atoms: _161  and  _164
REMARK   61  A    between atoms: _167  and  _169
REMARK   62  A    between atoms: _169  and  _170
REMARK   63  A    between atoms: _173  and  _175
REMARK   64  A    between atoms: _175  and  _176
REMARK   65  A    between atoms: _175  and  _178
REMARK   66  A    between atoms: _178  and  _179
REMARK   67  A    between atoms: _183  and  ZN_399
REMARK   68  A    between atoms: _184  and  _186
REMARK   69  A    between atoms: _186  and  _187
REMARK   70  A    between atoms: _186  and  _189
REMARK   71  A    between atoms: _189  and  _190
REMARK   72  A    between atoms: _190  and  _191
REMARK   73  A    between atoms: _194  and  _196
REMARK   74  A    between atoms: _196  and  _197
REMARK   75  A    between atoms: _196  and  _199
REMARK   76  A    between atoms: _199  and  _200
REMARK   77  A    between atoms: _203  and  _205
REMARK   78  A    between atoms: _205  and  _206
REMARK   79  A    between atoms: _205  and  _208
REMARK   80  A    between atoms: _208  and  _209
REMARK   81  A    between atoms: _213  and  ZN_399
REMARK   82  A    between atoms: _214  and  _216
REMARK   83  A    between atoms: _216  and  _217
REMARK   84  A    between atoms: _216  and  _219
REMARK   85  A    between atoms: _219  and  _220
REMARK   86  A    between atoms: _225  and  _226
REMARK   87  A    between atoms: _228  and  _230
REMARK   88  A    between atoms: _230  and  _231
REMARK   89  A    between atoms: _233  and  _235
REMARK   90  A    between atoms: _235  and  _236
REMARK   91  A    between atoms: _235  and  _238
REMARK   92  A    between atoms: _238  and  _239
REMARK   93  A    between atoms: _244  and  _246
REMARK   94  A    between atoms: _246  and  _247
REMARK   95  A    between atoms: _246  and  _249
REMARK   96  A    between atoms: _249  and  _250
REMARK   97  A    between atoms: _250  and  _251
REMARK   98  A    between atoms: _251  and  _252
REMARK   99  A    between atoms: _252  and  ZN_399
REMARK  100  A    between atoms: _254  and  _256
REMARK  101  A    between atoms: _256  and  _257
REMARK  102  A    between atoms: _256  and  _259
REMARK  103  A    between atoms: _259  and  _260
REMARK  104  A    between atoms: _262  and  _264
REMARK  105  A    between atoms: _264  and  _265
REMARK  106  A    between atoms: _264  and  _267
REMARK  107  A    between atoms: _267  and  _268
REMARK  108  A    between atoms: _271  and  _273
REMARK  109  A    between atoms: _273  and  _274
REMARK  110  A    between atoms: _273  and  _276
REMARK  111  A    between atoms: _276  and  _277
REMARK  112  A    between atoms: _280  and  _282
REMARK  113  A    between atoms: _282  and  _283
REMARK  114  A    between atoms: _285  and  _287
REMARK  115  A    between atoms: _287  and  _288
REMARK  116  A    between atoms: _287  and  _290
REMARK  117  A    between atoms: _290  and  _291
REMARK  118  A    between atoms: _291  and  _292
REMARK  119  A    between atoms: _295  and  _297
REMARK  120  A    between atoms: _297  and  _298
REMARK  121  A    between atoms: _297  and  _300
REMARK  122  A    between atoms: _303  and  _305
REMARK  123  A    between atoms: _305  and  _306
REMARK  124  A    between atoms: _305  and  _308
REMARK  125  A    between atoms: _308  and  _309
REMARK  126  A    between atoms: _314  and  _315
REMARK  127  A    between atoms: _317  and  _319
REMARK  128  A    between atoms: _319  and  _320
REMARK  129  A    between atoms: _319  and  _322
REMARK  130  A    between atoms: _322  and  _323
REMARK  131  A    between atoms: _326  and  _328
REMARK  132  A    between atoms: _328  and  _329
REMARK  133  A    between atoms: _328  and  _331
REMARK  134  A    between atoms: _331  and  _332
REMARK  135  A    between atoms: _332  and  _333
REMARK  136  A    between atoms: _333  and  _334
REMARK  137  A    between atoms: _343  and  _345
REMARK  138  A    between atoms: _345  and  _346
REMARK  139  A    between atoms: _345  and  _348
REMARK  140  A    between atoms: _348  and  _349
REMARK  141  A    between atoms: _352  and  _354
REMARK  142  A    between atoms: _354  and  _355
REMARK  143  A    between atoms: _354  and  _357
REMARK  144  A    between atoms: _357  and  _358
REMARK  145  A    between atoms: _363  and  _365
REMARK  146  A    between atoms: _365  and  _366
REMARK  147  A    between atoms: _365  and  _368
REMARK  148  A    between atoms: _371  and  _373
REMARK  149  A    between atoms: _373  and  _374
REMARK  150  A    between atoms: _373  and  _376
REMARK  151  A    between atoms: _376  and  _377
REMARK  152  A    between atoms: _382  and  _384
REMARK  153  A    between atoms: _384  and  _385
REMARK  154  A    between atoms: _384  and  _387
REMARK  155  A    between atoms: _387  and  _388
REMARK  156  A    between atoms: _391  and  _393
REMARK  157  A    between atoms: _393  and  _394
REMARK  158  A    between atoms: _393  and  _396
REMARK  159  A    between atoms: _396  and  _397
REMARK                            x       y       z     vdW  Elec       q    Type
REMARK                         _______ _______ _______ _____ _____    ______ ____
ROOT
ATOM      1  C   ASN A   3      47.218  17.492  -0.874  0.00  0.00    +0.241 C 
ATOM      2  O   ASN A   3      46.319  17.894  -0.089  0.00  0.00    -0.273 OA
ATOM      3  N   ALA A   4      47.920  18.280  -1.654  0.00  0.00    -0.297 N 
ATOM      4  H   ALA A   4      48.733  17.872  -2.158  0.00  0.00    +0.150 HD
ENDROOT
BRANCH   3   5
ATOM      5  CA  ALA A   4      47.628  19.691  -1.856  0.00  0.00    +0.149 C 
ATOM      6  CB  ALA A   4      48.451  20.602  -0.913  0.00  0.00    +0.031 C 
BRANCH   5   7
ATOM      7  C   ALA A   4      48.043  19.918  -3.293  0.00  0.00    +0.241 C 
ATOM      8  O   ALA A   4      48.745  19.029  -3.817  0.00  0.00    -0.273 OA
ATOM      9  N   PHE A   5      47.490  20.908  -3.969  0.00  0.00    -0.297 N 
ATOM     10  H   PHE A   5      46.859  21.560  -3.460  0.00  0.00    +0.150 HD
BRANCH   9  11
ATOM     11  CA  PHE A   5      47.719  21.138  -5.403  0.00  0.00    +0.153 C 
BRANCH  11  12
ATOM     12  C   PHE A   5      47.289  22.521  -5.847  0.00  0.00    +0.241 C 
ATOM     13  O   PHE A   5      46.576  23.229  -5.117  0.00  0.00    -0.273 OA
ATOM     14  N   TRP A   6      47.782  22.913  -6.978  0.00  0.00    -0.298 N 
ATOM     15  H   TRP A   6      48.489  22.299  -7.430  0.00  0.00    +0.150 HD
BRANCH  14  16
ATOM     16  CA  TRP A   6      47.423  24.157  -7.676  0.00  0.00    +0.141 C 
BRANCH  16  17
ATOM     17  C   TRP A   6      46.672  23.749  -8.923  0.00  0.00    +0.227 C 
ATOM     18  O   TRP A   6      47.075  22.727  -9.522  0.00  0.00    -0.286 OA
ENDBRANCH  16  17
BRANCH  16  19
ATOM     19  CB  TRP A   6      48.700  24.869  -8.159  0.00  0.00    +0.056 C 
BRANCH  19  20
ATOM     20  CG  TRP A   6      48.407  25.969  -9.195  0.00  0.00    -0.002 A 
ATOM     21  CD2 TRP A   6      47.929  27.270  -8.945  0.00  0.00    +0.013 A 
ATOM     22  CE3 TRP A   6      47.623  27.929  -7.758  0.00  0.00    +0.001 A 
ATOM     23  CZ3 TRP A   6      47.165  29.253  -7.880  0.00  0.00    +0.000 A 
ATOM     24  CH2 TRP A   6      47.001  29.875  -9.123  0.00  0.00    +0.001 A 
ATOM     25  CZ2 TRP A   6      47.329  29.225 -10.320  0.00  0.00    +0.017 A 
ATOM     26  CE2 TRP A   6      47.822  27.925 -10.203  0.00  0.00    +0.056 A 
ATOM     27  NE1 TRP A   6      48.261  27.156 -11.137  0.00  0.00    -0.352 N 
ATOM     28  HE1 TRP A   6      48.326  27.391 -12.148  0.00  0.00    +0.166 HD
ATOM     29  CD1 TRP A   6      48.641  25.927 -10.532  0.00  0.00    +0.068 A 
ENDBRANCH  19  20
ENDBRANCH  16  19
ENDBRANCH  14  16
ENDBRANCH  11  12
BRANCH  11  30
ATOM     30  CB  PHE A   5      47.080  20.037  -6.308  0.00  0.00    +0.055 C 
BRANCH  30  31
ATOM     31  CG  PHE A   5      45.556  19.841  -6.168  0.00  0.00    -0.020 A 
ATOM     32  CD2 PHE A   5      45.020  19.065  -5.154  0.00  0.00    -0.004 A 
ATOM     33  CE2 PHE A   5      43.622  18.850  -5.067  0.00  0.00    -0.000 A 
ATOM     34  CZ  PHE A   5      42.782  19.439  -6.015  0.00  0.00    -0.000 A 
ATOM     35  CE1 PHE A   5      43.341  20.217  -7.036  0.00  0.00    -0.000 A 
ATOM     36  CD1 PHE A   5      44.725  20.408  -7.110  0.00  0.00    -0.004 A 
ENDBRANCH  30  31
ENDBRANCH  11  30
ENDBRANCH   9  11
ENDBRANCH   5   7
ENDBRANCH   3   5
BRANCH   1  37
ATOM     37  CA  ASN A   3      47.663  16.028  -0.834  0.00  0.00    +0.158 C 
BRANCH  37  39
ATOM     38  C   ASN A   2      47.410  14.182   0.629  0.00  0.00    +0.241 C 
ATOM     39  N   ASN A   3      46.910  15.285   0.178  0.00  0.00    -0.297 N 
ATOM     40  H   ASN A   3      45.995  15.636   0.526  0.00  0.00    +0.150 HD
ATOM     41  O   ASN A   2      48.403  13.642   0.117  0.00  0.00    -0.273 OA
BRANCH  38  42
ATOM     42  CA  ASN A   2      46.668  13.437   1.712  0.00  0.00    +0.158 C 
BRANCH  42  45
ATOM     43  C   TYR A   1      44.381  14.186   1.749  0.00  0.00    +0.239 C 
ATOM     44  O   TYR A   1      44.617  15.125   2.561  0.00  0.00    -0.274 OA
ATOM     45  N   ASN A   2      45.266  13.319   1.344  0.00  0.00    -0.297 N 
ATOM     46  H   ASN A   2      44.963  12.525   0.744  0.00  0.00    +0.150 HD
BRANCH  43  47
ATOM     47  CA  TYR A   1      42.952  13.733   1.473  0.00  0.00    +0.149 C 
BRANCH  47  48
ATOM     48  N   TYR A   1      42.227  13.535   2.723  0.00  0.00    -0.238 NA
ATOM     49  H   TYR A   1      41.673  14.337   3.086  0.00  0.00    +0.142 HD
ENDBRANCH  47  48
BRANCH  47  50
ATOM     50  CB  TYR A   1      42.211  14.842   0.711  0.00  0.00    +0.053 C 
BRANCH  50  51
ATOM     51  CG  TYR A   1      42.791  14.998  -0.681  0.00  0.00    -0.020 A 
ATOM     52  CD2 TYR A   1      43.537  16.106  -0.984  0.00  0.00    -0.001 A 
ATOM     53  CE2 TYR A   1      44.130  16.222  -2.219  0.00  0.00    +0.036 A 
ATOM     54  CZ  TYR A   1      43.994  15.216  -3.131  0.00  0.00    +0.134 A 
ATOM     55  CE1 TYR A   1      43.217  14.114  -2.836  0.00  0.00    +0.036 A 
ATOM     56  CD1 TYR A   1      42.612  14.008  -1.598  0.00  0.00    -0.001 A 
BRANCH  54  57
ATOM     57  OH  TYR A   1      44.628  15.322  -4.407  0.00  0.00    -0.506 OA
ATOM     58  HH  TYR A   1      44.429  14.513  -4.941  0.00  0.00    +0.292 HD
ENDBRANCH  54  57
ENDBRANCH  50  51
ENDBRANCH  47  50
ENDBRANCH  43  47
ENDBRANCH  42  45
BRANCH  42  59
ATOM     59  CB  ASN A   2      47.364  12.053   1.905  0.00  0.00    +0.114 C 
BRANCH  59  60
ATOM     60  CG  ASN A   2      46.963  11.335   3.189  0.00  0.00    +0.222 C 
ATOM     61  OD1 ASN A   2      46.946  11.906   4.297  0.00  0.00    -0.275 OA
ATOM     62  ND2 ASN A   2      46.861  10.040   3.118  0.00  0.00    -0.329 N 
ATOM     63 HD21 ASN A   2      46.765   9.478   3.987  0.00  0.00    +0.145 HD
ATOM     64 HD22 ASN A   2      46.876   9.567   2.192  0.00  0.00    +0.145 HD
ENDBRANCH  59  60
ENDBRANCH  42  59
ENDBRANCH  38  42
ENDBRANCH  37  39
BRANCH  37  65
ATOM     65  CB  ASN A   3      47.567  15.341  -2.221  0.00  0.00    +0.114 C 
BRANCH  65  66
ATOM     66  CG  ASN A   3      48.916  15.269  -2.959  0.00  0.00    +0.222 C 
ATOM     67  OD1 ASN A   3      49.774  16.171  -2.882  0.00  0.00    -0.275 OA
ATOM     68  ND2 ASN A   3      48.928  14.474  -3.987  0.00  0.00    -0.329 N 
ATOM     69 HD21 ASN A   3      48.220  13.717  -4.067  0.00  0.00    +0.145 HD
ATOM     70 HD22 ASN A   3      49.646  14.595  -4.730  0.00  0.00    +0.145 HD
ENDBRANCH  65  66
ENDBRANCH  37  65
ENDBRANCH   1  37
TORSDOF 23
REMARK  Name = ../refined-set-2016/1tmn/1tmn_pocket.pdb
REMARK  159 active torsions:
REMARK  status: ('A' for Active; 'I' for Inactive)
REMARK    1  A    between atoms: _1  and  _3
REMARK    2  A    between atoms: _3  and  _4
REMARK    3  A    between atoms: _3  and  _6
REMARK    4  A    between atoms: _6  and  _7
REMARK    5  A    between atoms: _12  and  _13
REMARK    6  A    between atoms: _15  and  _17
REMARK    7  A    between atoms: _17  and  _18
REMARK    8  A    between atoms: _17  and  _20
REMARK    9  A    between atoms: _20  and  _21
REMARK   10  A    between atoms: _26  and  _27
REMARK   11  A    between atoms: _29  and  _31
REMARK   12  A    between atoms: _31  and  _32
REMARK   13  A    between atoms: _31  and  _34
REMARK   14  A    between atoms: _34  and  _35
REMARK   15  A    between atoms: _40  and  _42
REMARK   16  A    between atoms: _42  and  _43
REMARK   17  A    between atoms: _42  and  _45
REMARK   18  A    between atoms: _45  and  _46
REMARK   19  A    between atoms: _51  and  _53
REMARK   20  A    between atoms: _53  and  _54
REMARK   21  A    between atoms: _57  and  _59
REMARK   22  A    between atoms: _59  and  _60
REMARK   23  A    between atoms: _59  and  _62
REMARK   24  A    between atoms: _62  and  _63
REMARK   25  A    between atoms: _69  and  _71
REMARK   26  A    between atoms: _71  and  _72
REMARK   27  A    between atoms: _71  and  _74
REMARK   28  A    between atoms: _74  and  _75
REMARK   29  A    between atoms: _85  and  _87
REMARK   30  A    between atoms: _87  and  _88
REMARK   31  A    between atoms: _87  and  _90
REMARK   32  A    between atoms: _93  and  _95
REMARK   33  A    between atoms: _95  and  _96
REMARK   34  A    between atoms: _95  and  _98
REMARK   35  A    between atoms: _98  and  _99
REMARK   36  A    between atoms: _104  and  _105
REMARK   37  A    between atoms: _107  and  _109
REMARK   38  A    between atoms: _109  and  _110
REMARK   39  A    between atoms: _109  and  _112
REMARK   40  A    between atoms: _112  and  _113
REMARK   41  A    between atoms: _116  and  _118
REMARK   42  A    between atoms: _118  and  _119
REMARK   43  A    between atoms: _118  and  _121
REMARK   44  A    between atoms: _121  and  _122
REMARK   45  A    between atoms: _128  and  _130
REMARK   46  A    between atoms: _130  and  _131
REMARK   47  A    between atoms: _130  and  _133
REMARK   48  A    between atoms: _133  and  _134
REMARK   49  A    between atoms: _137  and  _139
REMARK   50  A    between atoms: _139  and  _140
REMARK   51  A    between atoms: _142  and  _144
REMARK   52  A    between atoms: _144  and  _145
REMARK   53  A    between atoms: _144  and  _147
REMARK   54  A    between atoms: _147  and  _148
REMARK   55  A    between atoms: _151  and  _153
REMARK   56  A    between atoms: _153  and  _154
REMARK   57  A    between atoms: _153  and  _156
REMARK   58  A    between atoms: _159  and  _161
REMARK   59  A    between atoms: _161  and  _162
REMARK   60  A    between atoms: _161  and  _164
REMARK   61  A    between atoms: _167  and  _169
REMARK   62  A    between atoms: _169  and  _170
REMARK   63  A    between atoms: _173  and  _175
REMARK   64  A    between atoms: _175  and  _176
REMARK   65  A    between atoms: _175  and  _178
REMARK   66  A    between atoms: _178  and  _179
REMARK   67  A    between atoms: _183  and  ZN_399
REMARK   68  A    between atoms: _184  and  _186
REMARK   69  A    between atoms: _186  and  _187
REMARK   70  A    between atoms: _186  and  _189
REMARK   71  A    between atoms: _189  and  _190
REMARK   72  A    between atoms: _190  and  _191
REMARK   73  A    between atoms: _194  and  _196
REMARK   74  A    between atoms: _196  and  _197
REMARK   75  A    between atoms: _196  and  _199
REMARK   76  A    between atoms: _199  and  _200
REMARK   77  A    between atoms: _203  and  _205
REMARK   78  A    between atoms: _205  and  _206
REMARK   79  A    between atoms: _205  and  _208
REMARK   80  A    between atoms: _208  and  _209
REMARK   81  A    between atoms: _213  and  ZN_399
REMARK   82  A    between atoms: _214  and  _216
REMARK   83  A    between atoms: _216  and  _217
REMARK   84  A    between atoms: _216  and  _219
REMARK   85  A    between atoms: _219  and  _220
REMARK   86  A    between atoms: _225  and  _226
REMARK   87  A    between atoms: _228  and  _230
REMARK   88  A    between atoms: _230  and  _231
REMARK   89  A    between atoms: _233  and  _235
REMARK   90  A    between atoms: _235  and  _236
REMARK   91  A    between atoms: _235  and  _238
REMARK   92  A    between atoms: _238  and  _239
REMARK   93  A    between atoms: _244  and  _246
REMARK   94  A    between atoms: _246  and  _247
REMARK   95  A    between atoms: _246  and  _249
REMARK   96  A    between atoms: _249  and  _250
REMARK   97  A    between atoms: _250  and  _251
REMARK   98  A    between atoms: _251  and  _252
REMARK   99  A    between atoms: _252  and  ZN_399
REMARK  100  A    between atoms: _254  and  _256
REMARK  101  A    between atoms: _256  and  _257
REMARK  102  A    between atoms: _256  and  _259
REMARK  103  A    between atoms: _259  and  _260
REMARK  104  A    between atoms: _262  and  _264
REMARK  105  A    between atoms: _264  and  _265
REMARK  106  A    between atoms: _264  and  _267
REMARK  107  A    between atoms: _267  and  _268
REMARK  108  A    between atoms: _271  and  _273
REMARK  109  A    between atoms: _273  and  _274
REMARK  110  A    between atoms: _273  and  _276
REMARK  111  A    between atoms: _276  and  _277
REMARK  112  A    between atoms: _280  and  _282
REMARK  113  A    between atoms: _282  and  _283
REMARK  114  A    between atoms: _285  and  _287
REMARK  115  A    between atoms: _287  and  _288
REMARK  116  A    between atoms: _287  and  _290
REMARK  117  A    between atoms: _290  and  _291
REMARK  118  A    between atoms: _291  and  _292
REMARK  119  A    between atoms: _295  and  _297
REMARK  120  A    between atoms: _297  and  _298
REMARK  121  A    between atoms: _297  and  _300
REMARK  122  A    between atoms: _303  and  _305
REMARK  123  A    between atoms: _305  and  _306
REMARK  124  A    between atoms: _305  and  _308
REMARK  125  A    between atoms: _308  and  _309
REMARK  126  A    between atoms: _314  and  _315
REMARK  127  A    between atoms: _317  and  _319
REMARK  128  A    between atoms: _319  and  _320
REMARK  129  A    between atoms: _319  and  _322
REMARK  130  A    between atoms: _322  and  _323
REMARK  131  A    between atoms: _326  and  _328
REMARK  132  A    between atoms: _328  and  _329
REMARK  133  A    between atoms: _328  and  _331
REMARK  134  A    between atoms: _331  and  _332
REMARK  135  A    between atoms: _332  and  _333
REMARK  136  A    between atoms: _333  and  _334
REMARK  137  A    between atoms: _343  and  _345
REMARK  138  A    between atoms: _345  and  _346
REMARK  139  A    between atoms: _345  and  _348
REMARK  140  A    between atoms: _348  and  _349
REMARK  141  A    between atoms: _352  and  _354
REMARK  142  A    between atoms: _354  and  _355
REMARK  143  A    between atoms: _354  and  _357
REMARK  144  A    between atoms: _357  and  _358
REMARK  145  A    between atoms: _363  and  _365
REMARK  146  A    between atoms: _365  and  _366
REMARK  147  A    between atoms: _365  and  _368
REMARK  148  A    between atoms: _371  and  _373
REMARK  149  A    between atoms: _373  and  _374
REMARK  150  A    between atoms: _373  and  _376
REMARK  151  A    between atoms: _376  and  _377
REMARK  152  A    between atoms: _382  and  _384
REMARK  153  A    between atoms: _384  and  _385
REMARK  154  A    between atoms: _384  and  _387
REMARK  155  A    between atoms: _387  and  _388
REMARK  156  A    between atoms: _391  and  _393
REMARK  157  A    between atoms: _393  and  _394
REMARK  158  A    between atoms: _393  and  _396
REMARK  159  A    between atoms: _396  and  _397
REMARK                            x       y       z     vdW  Elec       q    Type
REMARK                         _______ _______ _______ _____ _____    ______ ____
ROOT
ATOM      1  CA  TYR A   2      44.675  21.609   0.687  0.00  0.00    +0.141 C 
ENDROOT
BRANCH   1   3
ATOM      2  C   VAL A   1      44.501  22.430  -1.652  0.00  0.00    +0.238 C 
ATOM      3  N   TYR A   2      44.000  22.322  -0.441  0.00  0.00    -0.298 N 
ATOM      4  H   TYR A   2      43.075  22.760  -0.256  0.00  0.00    +0.150 HD
ATOM      5  O   VAL A   1      45.644  22.002  -1.982  0.00  0.00    -0.274 OA
BRANCH   2   6
ATOM      6  CA  VAL A   1      43.770  23.369  -2.618  0.00  0.00    +0.145 C 
BRANCH   6   7
ATOM      7  CB  VAL A   1      43.092  22.503  -3.707  0.00  0.00    +0.025 C 
ATOM      8  CG2 VAL A   1      42.026  21.564  -3.111  0.00  0.00    +0.002 C 
ATOM      9  CG1 VAL A   1      42.538  23.327  -4.897  0.00  0.00    +0.002 C 
ENDBRANCH   6   7
BRANCH   6  10
ATOM     10  N   VAL A   1      44.682  24.275  -3.324  0.00  0.00    -0.238 NA
ATOM     11  H   VAL A   1      45.599  23.896  -3.634  0.00  0.00    +0.142 HD
ENDBRANCH   6  10
ENDBRANCH   2   6
ENDBRANCH   1   3
BRANCH   1  12
ATOM     12  C   TYR A   2      43.750  20.577   1.326  0.00  0.00    +0.227 C 
ATOM     13  O   TYR A   2      42.682  20.958   1.875  0.00  0.00    -0.286 OA
ENDBRANCH   1  12
BRANCH   1  14
ATOM     14  CB  TYR A   2      45.149  22.545   1.835  0.00  0.00    +0.054 C 
BRANCH  14  15
ATOM     15  CG  TYR A   2      46.173  23.583   1.351  0.00  0.00    -0.020 A 
ATOM     16  CD2 TYR A   2      47.522  23.277   1.314  0.00  0.00    -0.001 A 
ATOM     17  CE2 TYR A   2      48.443  24.224   0.851  0.00  0.00    +0.036 A 
ATOM     18  CZ  TYR A   2      47.971  25.477   0.442  0.00  0.00    +0.134 A 
ATOM     19  CE1 TYR A   2      46.629  25.760   0.459  0.00  0.00    +0.036 A 
ATOM     20  CD1 TYR A   2      45.727  24.814   0.917  0.00  0.00    -0.001 A 
BRANCH  18  21
ATOM     21  OH  TYR A   2      48.850  26.457  -0.099  0.00  0.00    -0.506 OA
ATOM     22  HH  TYR A   2      48.335  27.271  -0.328  0.00  0.00    +0.292 HD
ENDBRANCH  18  21
ENDBRANCH  14  15
ENDBRANCH   1  14
TORSDOF 8
REMARK  Name = ../refined-set-2016/1tmn/1tmn_pocket.pdb
REMARK  159 active torsions:
REMARK  status: ('A' for Active; 'I' for Inactive)
REMARK    1  A    between atoms: _1  and  _3
REMARK    2  A    between atoms: _3  and  _4
REMARK    3  A    between atoms: _3  and  _6
REMARK    4  A    between atoms: _6  and  _7
REMARK    5  A    between atoms: _12  and  _13
REMARK    6  A    between atoms: _15  and  _17
REMARK    7  A    between atoms: _17  and  _18
REMARK    8  A    between atoms: _17  and  _20
REMARK    9  A    between atoms: _20  and  _21
REMARK   10  A    between atoms: _26  and  _27
REMARK   11  A    between atoms: _29  and  _31
REMARK   12  A    between atoms: _31  and  _32
REMARK   13  A    between atoms: _31  and  _34
REMARK   14  A    between atoms: _34  and  _35
REMARK   15  A    between atoms: _40  and  _42
REMARK   16  A    between atoms: _42  and  _43
REMARK   17  A    between atoms: _42  and  _45
REMARK   18  A    between atoms: _45  and  _46
REMARK   19  A    between atoms: _51  and  _53
REMARK   20  A    between atoms: _53  and  _54
REMARK   21  A    between atoms: _57  and  _59
REMARK   22  A    between atoms: _59  and  _60
REMARK   23  A    between atoms: _59  and  _62
REMARK   24  A    between atoms: _62  and  _63
REMARK   25  A    between atoms: _69  and  _71
REMARK   26  A    between atoms: _71  and  _72
REMARK   27  A    between atoms: _71  and  _74
REMARK   28  A    between atoms: _74  and  _75
REMARK   29  A    between atoms: _85  and  _87
REMARK   30  A    between atoms: _87  and  _88
REMARK   31  A    between atoms: _87  and  _90
REMARK   32  A    between atoms: _93  and  _95
REMARK   33  A    between atoms: _95  and  _96
REMARK   34  A    between atoms: _95  and  _98
REMARK   35  A    between atoms: _98  and  _99
REMARK   36  A    between atoms: _104  and  _105
REMARK   37  A    between atoms: _107  and  _109
REMARK   38  A    between atoms: _109  and  _110
REMARK   39  A    between atoms: _109  and  _112
REMARK   40  A    between atoms: _112  and  _113
REMARK   41  A    between atoms: _116  and  _118
REMARK   42  A    between atoms: _118  and  _119
REMARK   43  A    between atoms: _118  and  _121
REMARK   44  A    between atoms: _121  and  _122
REMARK   45  A    between atoms: _128  and  _130
REMARK   46  A    between atoms: _130  and  _131
REMARK   47  A    between atoms: _130  and  _133
REMARK   48  A    between atoms: _133  and  _134
REMARK   49  A    between atoms: _137  and  _139
REMARK   50  A    between atoms: _139  and  _140
REMARK   51  A    between atoms: _142  and  _144
REMARK   52  A    between atoms: _144  and  _145
REMARK   53  A    between atoms: _144  and  _147
REMARK   54  A    between atoms: _147  and  _148
REMARK   55  A    between atoms: _151  and  _153
REMARK   56  A    between atoms: _153  and  _154
REMARK   57  A    between atoms: _153  and  _156
REMARK   58  A    between atoms: _159  and  _161
REMARK   59  A    between atoms: _161  and  _162
REMARK   60  A    between atoms: _161  and  _164
REMARK   61  A    between atoms: _167  and  _169
REMARK   62  A    between atoms: _169  and  _170
REMARK   63  A    between atoms: _173  and  _175
REMARK   64  A    between atoms: _175  and  _176
REMARK   65  A    between atoms: _175  and  _178
REMARK   66  A    between atoms: _178  and  _179
REMARK   67  A    between atoms: _183  and  ZN_399
REMARK   68  A    between atoms: _184  and  _186
REMARK   69  A    between atoms: _186  and  _187
REMARK   70  A    between atoms: _186  and  _189
REMARK   71  A    between atoms: _189  and  _190
REMARK   72  A    between atoms: _190  and  _191
REMARK   73  A    between atoms: _194  and  _196
REMARK   74  A    between atoms: _196  and  _197
REMARK   75  A    between atoms: _196  and  _199
REMARK   76  A    between atoms: _199  and  _200
REMARK   77  A    between atoms: _203  and  _205
REMARK   78  A    between atoms: _205  and  _206
REMARK   79  A    between atoms: _205  and  _208
REMARK   80  A    between atoms: _208  and  _209
REMARK   81  A    between atoms: _213  and  ZN_399
REMARK   82  A    between atoms: _214  and  _216
REMARK   83  A    between atoms: _216  and  _217
REMARK   84  A    between atoms: _216  and  _219
REMARK   85  A    between atoms: _219  and  _220
REMARK   86  A    between atoms: _225  and  _226
REMARK   87  A    between atoms: _228  and  _230
REMARK   88  A    between atoms: _230  and  _231
REMARK   89  A    between atoms: _233  and  _235
REMARK   90  A    between atoms: _235  and  _236
REMARK   91  A    between atoms: _235  and  _238
REMARK   92  A    between atoms: _238  and  _239
REMARK   93  A    between atoms: _244  and  _246
REMARK   94  A    between atoms: _246  and  _247
REMARK   95  A    between atoms: _246  and  _249
REMARK   96  A    between atoms: _249  and  _250
REMARK   97  A    between atoms: _250  and  _251
REMARK   98  A    between atoms: _251  and  _252
REMARK   99  A    between atoms: _252  and  ZN_399
REMARK  100  A    between atoms: _254  and  _256
REMARK  101  A    between atoms: _256  and  _257
REMARK  102  A    between atoms: _256  and  _259
REMARK  103  A    between atoms: _259  and  _260
REMARK  104  A    between atoms: _262  and  _264
REMARK  105  A    between atoms: _264  and  _265
REMARK  106  A    between atoms: _264  and  _267
REMARK  107  A    between atoms: _267  and  _268
REMARK  108  A    between atoms: _271  and  _273
REMARK  109  A    between atoms: _273  and  _274
REMARK  110  A    between atoms: _273  and  _276
REMARK  111  A    between atoms: _276  and  _277
REMARK  112  A    between atoms: _280  and  _282
REMARK  113  A    between atoms: _282  and  _283
REMARK  114  A    between atoms: _285  and  _287
REMARK  115  A    between atoms: _287  and  _288
REMARK  116  A    between atoms: _287  and  _290
REMARK  117  A    between atoms: _290  and  _291
REMARK  118  A    between atoms: _291  and  _292
REMARK  119  A    between atoms: _295  and  _297
REMARK  120  A    between atoms: _297  and  _298
REMARK  121  A    between atoms: _297  and  _300
REMARK  122  A    between atoms: _303  and  _305
REMARK  123  A    between atoms: _305  and  _306
REMARK  124  A    between atoms: _305  and  _308
REMARK  125  A    between atoms: _308  and  _309
REMARK  126  A    between atoms: _314  and  _315
REMARK  127  A    between atoms: _317  and  _319
REMARK  128  A    between atoms: _319  and  _320
REMARK  129  A    between atoms: _319  and  _322
REMARK  130  A    between atoms: _322  and  _323
REMARK  131  A    between atoms: _326  and  _328
REMARK  132  A    between atoms: _328  and  _329
REMARK  133  A    between atoms: _328  and  _331
REMARK  134  A    between atoms: _331  and  _332
REMARK  135  A    between atoms: _332  and  _333
REMARK  136  A    between atoms: _333  and  _334
REMARK  137  A    between atoms: _343  and  _345
REMARK  138  A    between atoms: _345  and  _346
REMARK  139  A    between atoms: _345  and  _348
REMARK  140  A    between atoms: _348  and  _349
REMARK  141  A    between atoms: _352  and  _354
REMARK  142  A    between atoms: _354  and  _355
REMARK  143  A    between atoms: _354  and  _357
REMARK  144  A    between atoms: _357  and  _358
REMARK  145  A    between atoms: _363  and  _365
REMARK  146  A    between atoms: _365  and  _366
REMARK  147  A    between atoms: _365  and  _368
REMARK  148  A    between atoms: _371  and  _373
REMARK  149  A    between atoms: _373  and  _374
REMARK  150  A    between atoms: _373  and  _376
REMARK  151  A    between atoms: _376  and  _377
REMARK  152  A    between atoms: _382  and  _384
REMARK  153  A    between atoms: _384  and  _385
REMARK  154  A    between atoms: _384  and  _387
REMARK  155  A    between atoms: _387  and  _388
REMARK  156  A    between atoms: _391  and  _393
REMARK  157  A    between atoms: _393  and  _394
REMARK  158  A    between atoms: _393  and  _396
REMARK  159  A    between atoms: _396  and  _397
REMARK                            x       y       z     vdW  Elec       q    Type
REMARK                         _______ _______ _______ _____ _____    ______ ____
ROOT
ATOM      1  C   THR A   1      50.713  11.424   6.873  0.00  0.00    +0.241 C 
ATOM      2  N   PHE A   2      49.667  12.188   7.044  0.00  0.00    -0.298 N 
ATOM      3  H   PHE A   2      48.741  11.749   7.222  0.00  0.00    +0.150 HD
ATOM      4  O   THR A   1      51.816  11.866   6.485  0.00  0.00    -0.274 OA
ENDROOT
BRANCH   1   5
ATOM      5  CA  THR A   1      50.414   9.945   6.808  0.00  0.00    +0.172 C 
BRANCH   5   6
ATOM      6  N   THR A   1      49.376   9.648   7.800  0.00  0.00    -0.236 NA
ATOM      7  H   THR A   1      48.387   9.474   7.529  0.00  0.00    +0.142 HD
ENDBRANCH   5   6
BRANCH   5   8
ATOM      8  CB  THR A   1      49.964   9.665   5.360  0.00  0.00    +0.135 C 
ATOM      9  CG2 THR A   1      51.129   9.778   4.334  0.00  0.00    +0.034 C 
BRANCH   8  10
ATOM     10  OG1 THR A   1      49.416   8.354   5.336  0.00  0.00    -0.383 OA
ATOM     11  HG1 THR A   1      48.645   8.308   5.956  0.00  0.00    +0.210 HD
ENDBRANCH   8  10
ENDBRANCH   5   8
ENDBRANCH   1   5
BRANCH   2  12
ATOM     12  CA  PHE A   2      49.766  13.644   6.991  0.00  0.00    +0.141 C 
BRANCH  12  13
ATOM     13  C   PHE A   2      48.842  14.228   8.023  0.00  0.00    +0.227 C 
ATOM     14  O   PHE A   2      47.749  13.655   8.250  0.00  0.00    -0.286 OA
ENDBRANCH  12  13
BRANCH  12  15
ATOM     15  CB  PHE A   2      49.281  14.181   5.653  0.00  0.00    +0.054 C 
BRANCH  15  16
ATOM     16  CG  PHE A   2      50.366  14.232   4.571  0.00  0.00    -0.020 A 
ATOM     17  CD2 PHE A   2      51.372  15.165   4.679  0.00  0.00    -0.004 A 
ATOM     18  CE2 PHE A   2      52.319  15.297   3.685  0.00  0.00    -0.000 A 
ATOM     19  CZ  PHE A   2      52.255  14.478   2.567  0.00  0.00    -0.000 A 
ATOM     20  CE1 PHE A   2      51.256  13.534   2.464  0.00  0.00    -0.000 A 
ATOM     21  CD1 PHE A   2      50.306  13.414   3.472  0.00  0.00    -0.004 A 
ENDBRANCH  15  16
ENDBRANCH  12  15
ENDBRANCH   2  12
TORSDOF 8
REMARK  Name = ../refined-set-2016/1tmn/1tmn_pocket.pdb
REMARK  159 active torsions:
REMARK  status: ('A' for Active; 'I' for Inactive)
REMARK    1  A    between atoms: _1  and  _3
REMARK    2  A    between atoms: _3  and  _4
REMARK    3  A    between atoms: _3  and  _6
REMARK    4  A    between atoms: _6  and  _7
REMARK    5  A    between atoms: _12  and  _13
REMARK    6  A    between atoms: _15  and  _17
REMARK    7  A    between atoms: _17  and  _18
REMARK    8  A    between atoms: _17  and  _20
REMARK    9  A    between atoms: _20  and  _21
REMARK   10  A    between atoms: _26  and  _27
REMARK   11  A    between atoms: _29  and  _31
REMARK   12  A    between atoms: _31  and  _32
REMARK   13  A    between atoms: _31  and  _34
REMARK   14  A    between atoms: _34  and  _35
REMARK   15  A    between atoms: _40  and  _42
REMARK   16  A    between atoms: _42  and  _43
REMARK   17  A    between atoms: _42  and  _45
REMARK   18  A    between atoms: _45  and  _46
REMARK   19  A    between atoms: _51  and  _53
REMARK   20  A    between atoms: _53  and  _54
REMARK   21  A    between atoms: _57  and  _59
REMARK   22  A    between atoms: _59  and  _60
REMARK   23  A    between atoms: _59  and  _62
REMARK   24  A    between atoms: _62  and  _63
REMARK   25  A    between atoms: _69  and  _71
REMARK   26  A    between atoms: _71  and  _72
REMARK   27  A    between atoms: _71  and  _74
REMARK   28  A    between atoms: _74  and  _75
REMARK   29  A    between atoms: _85  and  _87
REMARK   30  A    between atoms: _87  and  _88
REMARK   31  A    between atoms: _87  and  _90
REMARK   32  A    between atoms: _93  and  _95
REMARK   33  A    between atoms: _95  and  _96
REMARK   34  A    between atoms: _95  and  _98
REMARK   35  A    between atoms: _98  and  _99
REMARK   36  A    between atoms: _104  and  _105
REMARK   37  A    between atoms: _107  and  _109
REMARK   38  A    between atoms: _109  and  _110
REMARK   39  A    between atoms: _109  and  _112
REMARK   40  A    between atoms: _112  and  _113
REMARK   41  A    between atoms: _116  and  _118
REMARK   42  A    between atoms: _118  and  _119
REMARK   43  A    between atoms: _118  and  _121
REMARK   44  A    between atoms: _121  and  _122
REMARK   45  A    between atoms: _128  and  _130
REMARK   46  A    between atoms: _130  and  _131
REMARK   47  A    between atoms: _130  and  _133
REMARK   48  A    between atoms: _133  and  _134
REMARK   49  A    between atoms: _137  and  _139
REMARK   50  A    between atoms: _139  and  _140
REMARK   51  A    between atoms: _142  and  _144
REMARK   52  A    between atoms: _144  and  _145
REMARK   53  A    between atoms: _144  and  _147
REMARK   54  A    between atoms: _147  and  _148
REMARK   55  A    between atoms: _151  and  _153
REMARK   56  A    between atoms: _153  and  _154
REMARK   57  A    between atoms: _153  and  _156
REMARK   58  A    between atoms: _159  and  _161
REMARK   59  A    between atoms: _161  and  _162
REMARK   60  A    between atoms: _161  and  _164
REMARK   61  A    between atoms: _167  and  _169
REMARK   62  A    between atoms: _169  and  _170
REMARK   63  A    between atoms: _173  and  _175
REMARK   64  A    between atoms: _175  and  _176
REMARK   65  A    between atoms: _175  and  _178
REMARK   66  A    between atoms: _178  and  _179
REMARK   67  A    between atoms: _183  and  ZN_399
REMARK   68  A    between atoms: _184  and  _186
REMARK   69  A    between atoms: _186  and  _187
REMARK   70  A    between atoms: _186  and  _189
REMARK   71  A    between atoms: _189  and  _190
REMARK   72  A    between atoms: _190  and  _191
REMARK   73  A    between atoms: _194  and  _196
REMARK   74  A    between atoms: _196  and  _197
REMARK   75  A    between atoms: _196  and  _199
REMARK   76  A    between atoms: _199  and  _200
REMARK   77  A    between atoms: _203  and  _205
REMARK   78  A    between atoms: _205  and  _206
REMARK   79  A    between atoms: _205  and  _208
REMARK   80  A    between atoms: _208  and  _209
REMARK   81  A    between atoms: _213  and  ZN_399
REMARK   82  A    between atoms: _214  and  _216
REMARK   83  A    between atoms: _216  and  _217
REMARK   84  A    between atoms: _216  and  _219
REMARK   85  A    between atoms: _219  and  _220
REMARK   86  A    between atoms: _225  and  _226
REMARK   87  A    between atoms: _228  and  _230
REMARK   88  A    between atoms: _230  and  _231
REMARK   89  A    between atoms: _233  and  _235
REMARK   90  A    between atoms: _235  and  _236
REMARK   91  A    between atoms: _235  and  _238
REMARK   92  A    between atoms: _238  and  _239
REMARK   93  A    between atoms: _244  and  _246
REMARK   94  A    between atoms: _246  and  _247
REMARK   95  A    between atoms: _246  and  _249
REMARK   96  A    between atoms: _249  and  _250
REMARK   97  A    between atoms: _250  and  _251
REMARK   98  A    between atoms: _251  and  _252
REMARK   99  A    between atoms: _252  and  ZN_399
REMARK  100  A    between atoms: _254  and  _256
REMARK  101  A    between atoms: _256  and  _257
REMARK  102  A    between atoms: _256  and  _259
REMARK  103  A    between atoms: _259  and  _260
REMARK  104  A    between atoms: _262  and  _264
REMARK  105  A    between atoms: _264  and  _265
REMARK  106  A    between atoms: _264  and  _267
REMARK  107  A    between atoms: _267  and  _268
REMARK  108  A    between atoms: _271  and  _273
REMARK  109  A    between atoms: _273  and  _274
REMARK  110  A    between atoms: _273  and  _276
REMARK  111  A    between atoms: _276  and  _277
REMARK  112  A    between atoms: _280  and  _282
REMARK  113  A    between atoms: _282  and  _283
REMARK  114  A    between atoms: _285  and  _287
REMARK  115  A    between atoms: _287  and  _288
REMARK  116  A    between atoms: _287  and  _290
REMARK  117  A    between atoms: _290  and  _291
REMARK  118  A    between atoms: _291  and  _292
REMARK  119  A    between atoms: _295  and  _297
REMARK  120  A    between atoms: _297  and  _298
REMARK  121  A    between atoms: _297  and  _300
REMARK  122  A    between atoms: _303  and  _305
REMARK  123  A    between atoms: _305  and  _306
REMARK  124  A    between atoms: _305  and  _308
REMARK  125  A    between atoms: _308  and  _309
REMARK  126  A    between atoms: _314  and  _315
REMARK  127  A    between atoms: _317  and  _319
REMARK  128  A    between atoms: _319  and  _320
REMARK  129  A    between atoms: _319  and  _322
REMARK  130  A    between atoms: _322  and  _323
REMARK  131  A    between atoms: _326  and  _328
REMARK  132  A    between atoms: _328  and  _329
REMARK  133  A    between atoms: _328  and  _331
REMARK  134  A    between atoms: _331  and  _332
REMARK  135  A    between atoms: _332  and  _333
REMARK  136  A    between atoms: _333  and  _334
REMARK  137  A    between atoms: _343  and  _345
REMARK  138  A    between atoms: _345  and  _346
REMARK  139  A    between atoms: _345  and  _348
REMARK  140  A    between atoms: _348  and  _349
REMARK  141  A    between atoms: _352  and  _354
REMARK  142  A    between atoms: _354  and  _355
REMARK  143  A    between atoms: _354  and  _357
REMARK  144  A    between atoms: _357  and  _358
REMARK  145  A    between atoms: _363  and  _365
REMARK  146  A    between atoms: _365  and  _366
REMARK  147  A    between atoms: _365  and  _368
REMARK  148  A    between atoms: _371  and  _373
REMARK  149  A    between atoms: _373  and  _374
REMARK  150  A    between atoms: _373  and  _376
REMARK  151  A    between atoms: _376  and  _377
REMARK  152  A    between atoms: _382  and  _384
REMARK  153  A    between atoms: _384  and  _385
REMARK  154  A    between atoms: _384  and  _387
REMARK  155  A    between atoms: _387  and  _388
REMARK  156  A    between atoms: _391  and  _393
REMARK  157  A    between atoms: _393  and  _394
REMARK  158  A    between atoms: _393  and  _396
REMARK  159  A    between atoms: _396  and  _397
REMARK                            x       y       z     vdW  Elec       q    Type
REMARK                         _______ _______ _______ _____ _____    ______ ____
ROOT
ATOM      1  CA  LEU A   1      48.827  20.253   4.508  0.00  0.00    +0.133 C 
ENDROOT
BRANCH   1   2
ATOM      2  N   LEU A   1      47.652  19.921   5.336  0.00  0.00    -0.239 NA
ATOM      3  H   LEU A   1      46.812  19.518   4.873  0.00  0.00    +0.142 HD
ENDBRANCH   1   2
BRANCH   1   4
ATOM      4  C   LEU A   1      49.297  21.699   4.450  0.00  0.00    +0.224 C 
ATOM      5  O   LEU A   1      50.529  21.925   4.351  0.00  0.00    -0.287 OA
ENDBRANCH   1   4
BRANCH   1   6
ATOM      6  CB  LEU A   1      48.762  19.624   3.109  0.00  0.00    +0.025 C 
BRANCH   6   7
ATOM      7  CG  LEU A   1      49.132  18.133   3.219  0.00  0.00    +0.002 C 
ATOM      8  CD2 LEU A   1      47.936  17.202   3.537  0.00  0.00    +0.000 C 
ATOM      9  CD1 LEU A   1      49.866  17.734   1.950  0.00  0.00    +0.000 C 
ENDBRANCH   6   7
ENDBRANCH   1   6
TORSDOF 4
REMARK  Name = ../refined-set-2016/1tmn/1tmn_pocket.pdb
REMARK  159 active torsions:
REMARK  status: ('A' for Active; 'I' for Inactive)
REMARK    1  A    between atoms: _1  and  _3
REMARK    2  A    between atoms: _3  and  _4
REMARK    3  A    between atoms: _3  and  _6
REMARK    4  A    between atoms: _6  and  _7
REMARK    5  A    between atoms: _12  and  _13
REMARK    6  A    between atoms: _15  and  _17
REMARK    7  A    between atoms: _17  and  _18
REMARK    8  A    between atoms: _17  and  _20
REMARK    9  A    between atoms: _20  and  _21
REMARK   10  A    between atoms: _26  and  _27
REMARK   11  A    between atoms: _29  and  _31
REMARK   12  A    between atoms: _31  and  _32
REMARK   13  A    between atoms: _31  and  _34
REMARK   14  A    between atoms: _34  and  _35
REMARK   15  A    between atoms: _40  and  _42
REMARK   16  A    between atoms: _42  and  _43
REMARK   17  A    between atoms: _42  and  _45
REMARK   18  A    between atoms: _45  and  _46
REMARK   19  A    between atoms: _51  and  _53
REMARK   20  A    between atoms: _53  and  _54
REMARK   21  A    between atoms: _57  and  _59
REMARK   22  A    between atoms: _59  and  _60
REMARK   23  A    between atoms: _59  and  _62
REMARK   24  A    between atoms: _62  and  _63
REMARK   25  A    between atoms: _69  and  _71
REMARK   26  A    between atoms: _71  and  _72
REMARK   27  A    between atoms: _71  and  _74
REMARK   28  A    between atoms: _74  and  _75
REMARK   29  A    between atoms: _85  and  _87
REMARK   30  A    between atoms: _87  and  _88
REMARK   31  A    between atoms: _87  and  _90
REMARK   32  A    between atoms: _93  and  _95
REMARK   33  A    between atoms: _95  and  _96
REMARK   34  A    between atoms: _95  and  _98
REMARK   35  A    between atoms: _98  and  _99
REMARK   36  A    between atoms: _104  and  _105
REMARK   37  A    between atoms: _107  and  _109
REMARK   38  A    between atoms: _109  and  _110
REMARK   39  A    between atoms: _109  and  _112
REMARK   40  A    between atoms: _112  and  _113
REMARK   41  A    between atoms: _116  and  _118
REMARK   42  A    between atoms: _118  and  _119
REMARK   43  A    between atoms: _118  and  _121
REMARK   44  A    between atoms: _121  and  _122
REMARK   45  A    between atoms: _128  and  _130
REMARK   46  A    between atoms: _130  and  _131
REMARK   47  A    between atoms: _130  and  _133
REMARK   48  A    between atoms: _133  and  _134
REMARK   49  A    between atoms: _137  and  _139
REMARK   50  A    between atoms: _139  and  _140
REMARK   51  A    between atoms: _142  and  _144
REMARK   52  A    between atoms: _144  and  _145
REMARK   53  A    between atoms: _144  and  _147
REMARK   54  A    between atoms: _147  and  _148
REMARK   55  A    between atoms: _151  and  _153
REMARK   56  A    between atoms: _153  and  _154
REMARK   57  A    between atoms: _153  and  _156
REMARK   58  A    between atoms: _159  and  _161
REMARK   59  A    between atoms: _161  and  _162
REMARK   60  A    between atoms: _161  and  _164
REMARK   61  A    between atoms: _167  and  _169
REMARK   62  A    between atoms: _169  and  _170
REMARK   63  A    between atoms: _173  and  _175
REMARK   64  A    between atoms: _175  and  _176
REMARK   65  A    between atoms: _175  and  _178
REMARK   66  A    between atoms: _178  and  _179
REMARK   67  A    between atoms: _183  and  ZN_399
REMARK   68  A    between atoms: _184  and  _186
REMARK   69  A    between atoms: _186  and  _187
REMARK   70  A    between atoms: _186  and  _189
REMARK   71  A    between atoms: _189  and  _190
REMARK   72  A    between atoms: _190  and  _191
REMARK   73  A    between atoms: _194  and  _196
REMARK   74  A    between atoms: _196  and  _197
REMARK   75  A    between atoms: _196  and  _199
REMARK   76  A    between atoms: _199  and  _200
REMARK   77  A    between atoms: _203  and  _205
REMARK   78  A    between atoms: _205  and  _206
REMARK   79  A    between atoms: _205  and  _208
REMARK   80  A    between atoms: _208  and  _209
REMARK   81  A    between atoms: _213  and  ZN_399
REMARK   82  A    between atoms: _214  and  _216
REMARK   83  A    between atoms: _216  and  _217
REMARK   84  A    between atoms: _216  and  _219
REMARK   85  A    between atoms: _219  and  _220
REMARK   86  A    between atoms: _225  and  _226
REMARK   87  A    between atoms: _228  and  _230
REMARK   88  A    between atoms: _230  and  _231
REMARK   89  A    between atoms: _233  and  _235
REMARK   90  A    between atoms: _235  and  _236
REMARK   91  A    between atoms: _235  and  _238
REMARK   92  A    between atoms: _238  and  _239
REMARK   93  A    between atoms: _244  and  _246
REMARK   94  A    between atoms: _246  and  _247
REMARK   95  A    between atoms: _246  and  _249
REMARK   96  A    between atoms: _249  and  _250
REMARK   97  A    between atoms: _250  and  _251
REMARK   98  A    between atoms: _251  and  _252
REMARK   99  A    between atoms: _252  and  ZN_399
REMARK  100  A    between atoms: _254  and  _256
REMARK  101  A    between atoms: _256  and  _257
REMARK  102  A    between atoms: _256  and  _259
REMARK  103  A    between atoms: _259  and  _260
REMARK  104  A    between atoms: _262  and  _264
REMARK  105  A    between atoms: _264  and  _265
REMARK  106  A    between atoms: _264  and  _267
REMARK  107  A    between atoms: _267  and  _268
REMARK  108  A    between atoms: _271  and  _273
REMARK  109  A    between atoms: _273  and  _274
REMARK  110  A    between atoms: _273  and  _276
REMARK  111  A    between atoms: _276  and  _277
REMARK  112  A    between atoms: _280  and  _282
REMARK  113  A    between atoms: _282  and  _283
REMARK  114  A    between atoms: _285  and  _287
REMARK  115  A    between atoms: _287  and  _288
REMARK  116  A    between atoms: _287  and  _290
REMARK  117  A    between atoms: _290  and  _291
REMARK  118  A    between atoms: _291  and  _292
REMARK  119  A    between atoms: _295  and  _297
REMARK  120  A    between atoms: _297  and  _298
REMARK  121  A    between atoms: _297  and  _300
REMARK  122  A    between atoms: _303  and  _305
REMARK  123  A    between atoms: _305  and  _306
REMARK  124  A    between atoms: _305  and  _308
REMARK  125  A    between atoms: _308  and  _309
REMARK  126  A    between atoms: _314  and  _315
REMARK  127  A    between atoms: _317  and  _319
REMARK  128  A    between atoms: _319  and  _320
REMARK  129  A    between atoms: _319  and  _322
REMARK  130  A    between atoms: _322  and  _323
REMARK  131  A    between atoms: _326  and  _328
REMARK  132  A    between atoms: _328  and  _329
REMARK  133  A    between atoms: _328  and  _331
REMARK  134  A    between atoms: _331  and  _332
REMARK  135  A    between atoms: _332  and  _333
REMARK  136  A    between atoms: _333  and  _334
REMARK  137  A    between atoms: _343  and  _345
REMARK  138  A    between atoms: _345  and  _346
REMARK  139  A    between atoms: _345  and  _348
REMARK  140  A    between atoms: _348  and  _349
REMARK  141  A    between atoms: _352  and  _354
REMARK  142  A    between atoms: _354  and  _355
REMARK  143  A    between atoms: _354  and  _357
REMARK  144  A    between atoms: _357  and  _358
REMARK  145  A    between atoms: _363  and  _365
REMARK  146  A    between atoms: _365  and  _366
REMARK  147  A    between atoms: _365  and  _368
REMARK  148  A    between atoms: _371  and  _373
REMARK  149  A    between atoms: _373  and  _374
REMARK  150  A    between atoms: _373  and  _376
REMARK  151  A    between atoms: _376  and  _377
REMARK  152  A    between atoms: _382  and  _384
REMARK  153  A    between atoms: _384  and  _385
REMARK  154  A    between atoms: _384  and  _387
REMARK  155  A    between atoms: _387  and  _388
REMARK  156  A    between atoms: _391  and  _393
REMARK  157  A    between atoms: _393  and  _394
REMARK  158  A    between atoms: _393  and  _396
REMARK  159  A    between atoms: _396  and  _397
REMARK                            x       y       z     vdW  Elec       q    Type
REMARK                         _______ _______ _______ _____ _____    ______ ____
ROOT
ATOM      1  CA  GLY A   1      53.780  23.552   6.141  0.00  0.00    +0.156 C 
ENDROOT
BRANCH   1   2
ATOM      2  N   GLY A   1      52.371  23.489   6.599  0.00  0.00    -0.238 NA
ATOM      3  H   GLY A   1      51.626  23.230   5.921  0.00  0.00    +0.142 HD
ENDBRANCH   1   2
BRANCH   1   4
ATOM      4  C   GLY A   1      54.047  24.732   5.215  0.00  0.00    +0.226 C 
ATOM      5  O   GLY A   1      53.603  24.734   4.047  0.00  0.00    -0.287 OA
ENDBRANCH   1   4
TORSDOF 2
REMARK  Name = ../refined-set-2016/1tmn/1tmn_pocket.pdb
REMARK  159 active torsions:
REMARK  status: ('A' for Active; 'I' for Inactive)
REMARK    1  A    between atoms: _1  and  _3
REMARK    2  A    between atoms: _3  and  _4
REMARK    3  A    between atoms: _3  and  _6
REMARK    4  A    between atoms: _6  and  _7
REMARK    5  A    between atoms: _12  and  _13
REMARK    6  A    between atoms: _15  and  _17
REMARK    7  A    between atoms: _17  and  _18
REMARK    8  A    between atoms: _17  and  _20
REMARK    9  A    between atoms: _20  and  _21
REMARK   10  A    between atoms: _26  and  _27
REMARK   11  A    between atoms: _29  and  _31
REMARK   12  A    between atoms: _31  and  _32
REMARK   13  A    between atoms: _31  and  _34
REMARK   14  A    between atoms: _34  and  _35
REMARK   15  A    between atoms: _40  and  _42
REMARK   16  A    between atoms: _42  and  _43
REMARK   17  A    between atoms: _42  and  _45
REMARK   18  A    between atoms: _45  and  _46
REMARK   19  A    between atoms: _51  and  _53
REMARK   20  A    between atoms: _53  and  _54
REMARK   21  A    between atoms: _57  and  _59
REMARK   22  A    between atoms: _59  and  _60
REMARK   23  A    between atoms: _59  and  _62
REMARK   24  A    between atoms: _62  and  _63
REMARK   25  A    between atoms: _69  and  _71
REMARK   26  A    between atoms: _71  and  _72
REMARK   27  A    between atoms: _71  and  _74
REMARK   28  A    between atoms: _74  and  _75
REMARK   29  A    between atoms: _85  and  _87
REMARK   30  A    between atoms: _87  and  _88
REMARK   31  A    between atoms: _87  and  _90
REMARK   32  A    between atoms: _93  and  _95
REMARK   33  A    between atoms: _95  and  _96
REMARK   34  A    between atoms: _95  and  _98
REMARK   35  A    between atoms: _98  and  _99
REMARK   36  A    between atoms: _104  and  _105
REMARK   37  A    between atoms: _107  and  _109
REMARK   38  A    between atoms: _109  and  _110
REMARK   39  A    between atoms: _109  and  _112
REMARK   40  A    between atoms: _112  and  _113
REMARK   41  A    between atoms: _116  and  _118
REMARK   42  A    between atoms: _118  and  _119
REMARK   43  A    between atoms: _118  and  _121
REMARK   44  A    between atoms: _121  and  _122
REMARK   45  A    between atoms: _128  and  _130
REMARK   46  A    between atoms: _130  and  _131
REMARK   47  A    between atoms: _130  and  _133
REMARK   48  A    between atoms: _133  and  _134
REMARK   49  A    between atoms: _137  and  _139
REMARK   50  A    between atoms: _139  and  _140
REMARK   51  A    between atoms: _142  and  _144
REMARK   52  A    between atoms: _144  and  _145
REMARK   53  A    between atoms: _144  and  _147
REMARK   54  A    between atoms: _147  and  _148
REMARK   55  A    between atoms: _151  and  _153
REMARK   56  A    between atoms: _153  and  _154
REMARK   57  A    between atoms: _153  and  _156
REMARK   58  A    between atoms: _159  and  _161
REMARK   59  A    between atoms: _161  and  _162
REMARK   60  A    between atoms: _161  and  _164
REMARK   61  A    between atoms: _167  and  _169
REMARK   62  A    between atoms: _169  and  _170
REMARK   63  A    between atoms: _173  and  _175
REMARK   64  A    between atoms: _175  and  _176
REMARK   65  A    between atoms: _175  and  _178
REMARK   66  A    between atoms: _178  and  _179
REMARK   67  A    between atoms: _183  and  ZN_399
REMARK   68  A    between atoms: _184  and  _186
REMARK   69  A    between atoms: _186  and  _187
REMARK   70  A    between atoms: _186  and  _189
REMARK   71  A    between atoms: _189  and  _190
REMARK   72  A    between atoms: _190  and  _191
REMARK   73  A    between atoms: _194  and  _196
REMARK   74  A    between atoms: _196  and  _197
REMARK   75  A    between atoms: _196  and  _199
REMARK   76  A    between atoms: _199  and  _200
REMARK   77  A    between atoms: _203  and  _205
REMARK   78  A    between atoms: _205  and  _206
REMARK   79  A    between atoms: _205  and  _208
REMARK   80  A    between atoms: _208  and  _209
REMARK   81  A    between atoms: _213  and  ZN_399
REMARK   82  A    between atoms: _214  and  _216
REMARK   83  A    between atoms: _216  and  _217
REMARK   84  A    between atoms: _216  and  _219
REMARK   85  A    between atoms: _219  and  _220
REMARK   86  A    between atoms: _225  and  _226
REMARK   87  A    between atoms: _228  and  _230
REMARK   88  A    between atoms: _230  and  _231
REMARK   89  A    between atoms: _233  and  _235
REMARK   90  A    between atoms: _235  and  _236
REMARK   91  A    between atoms: _235  and  _238
REMARK   92  A    between atoms: _238  and  _239
REMARK   93  A    between atoms: _244  and  _246
REMARK   94  A    between atoms: _246  and  _247
REMARK   95  A    between atoms: _246  and  _249
REMARK   96  A    between atoms: _249  and  _250
REMARK   97  A    between atoms: _250  and  _251
REMARK   98  A    between atoms: _251  and  _252
REMARK   99  A    between atoms: _252  and  ZN_399
REMARK  100  A    between atoms: _254  and  _256
REMARK  101  A    between atoms: _256  and  _257
REMARK  102  A    between atoms: _256  and  _259
REMARK  103  A    between atoms: _259  and  _260
REMARK  104  A    between atoms: _262  and  _264
REMARK  105  A    between atoms: _264  and  _265
REMARK  106  A    between atoms: _264  and  _267
REMARK  107  A    between atoms: _267  and  _268
REMARK  108  A    between atoms: _271  and  _273
REMARK  109  A    between atoms: _273  and  _274
REMARK  110  A    between atoms: _273  and  _276
REMARK  111  A    between atoms: _276  and  _277
REMARK  112  A    between atoms: _280  and  _282
REMARK  113  A    between atoms: _282  and  _283
REMARK  114  A    between atoms: _285  and  _287
REMARK  115  A    between atoms: _287  and  _288
REMARK  116  A    between atoms: _287  and  _290
REMARK  117  A    between atoms: _290  and  _291
REMARK  118  A    between atoms: _291  and  _292
REMARK  119  A    between atoms: _295  and  _297
REMARK  120  A    between atoms: _297  and  _298
REMARK  121  A    between atoms: _297  and  _300
REMARK  122  A    between atoms: _303  and  _305
REMARK  123  A    between atoms: _305  and  _306
REMARK  124  A    between atoms: _305  and  _308
REMARK  125  A    between atoms: _308  and  _309
REMARK  126  A    between atoms: _314  and  _315
REMARK  127  A    between atoms: _317  and  _319
REMARK  128  A    between atoms: _319  and  _320
REMARK  129  A    between atoms: _319  and  _322
REMARK  130  A    between atoms: _322  and  _323
REMARK  131  A    between atoms: _326  and  _328
REMARK  132  A    between atoms: _328  and  _329
REMARK  133  A    between atoms: _328  and  _331
REMARK  134  A    between atoms: _331  and  _332
REMARK  135  A    between atoms: _332  and  _333
REMARK  136  A    between atoms: _333  and  _334
REMARK  137  A    between atoms: _343  and  _345
REMARK  138  A    between atoms: _345  and  _346
REMARK  139  A    between atoms: _345  and  _348
REMARK  140  A    between atoms: _348  and  _349
REMARK  141  A    between atoms: _352  and  _354
REMARK  142  A    between atoms: _354  and  _355
REMARK  143  A    between atoms: _354  and  _357
REMARK  144  A    between atoms: _357  and  _358
REMARK  145  A    between atoms: _363  and  _365
REMARK  146  A    between atoms: _365  and  _366
REMARK  147  A    between atoms: _365  and  _368
REMARK  148  A    between atoms: _371  and  _373
REMARK  149  A    between atoms: _373  and  _374
REMARK  150  A    between atoms: _373  and  _376
REMARK  151  A    between atoms: _376  and  _377
REMARK  152  A    between atoms: _382  and  _384
REMARK  153  A    between atoms: _384  and  _385
REMARK  154  A    between atoms: _384  and  _387
REMARK  155  A    between atoms: _387  and  _388
REMARK  156  A    between atoms: _391  and  _393
REMARK  157  A    between atoms: _393  and  _394
REMARK  158  A    between atoms: _393  and  _396
REMARK  159  A    between atoms: _396  and  _397
REMARK                            x       y       z     vdW  Elec       q    Type
REMARK                         _______ _______ _______ _____ _____    ______ ____
ROOT
ATOM      1  C   UNK A   5      55.652  25.022  -3.406  0.00  0.00    +0.000 C 
ENDROOT
BRANCH   1   3
ATOM      2  C   ALA A   4      55.418  27.265  -2.446  0.00  0.00    +0.000 C 
ATOM      3  N   UNK A   5      55.456  25.948  -2.259  0.00  0.00    +0.000 N 
ATOM      4  H   UNK A   5      55.347  25.562  -1.299  0.00  0.00    +0.000 HD
ATOM      5  O   ALA A   4      55.598  27.827  -3.543  0.00  0.00    +0.000 OA
BRANCH   2   6
ATOM      6  CA  ALA A   4      55.086  28.133  -1.239  0.00  0.00    +0.000 C 
ATOM      7  CB  ALA A   4      56.377  28.735  -0.672  0.00  0.00    +0.000 C 
BRANCH   6   9
ATOM      8  C   VAL A   3      53.038  27.160  -0.443  0.00  0.00    +0.000 C 
ATOM      9  N   ALA A   4      54.303  27.452  -0.201  0.00  0.00    +0.000 N 
ATOM     10  H   ALA A   4      54.737  27.203   0.711  0.00  0.00    +0.000 HD
ATOM     11  O   VAL A   3      52.504  27.356  -1.562  0.00  0.00    +0.000 OA
BRANCH   8  12
ATOM     12  CA  VAL A   3      52.253  26.457   0.660  0.00  0.00    +0.000 C 
BRANCH  12  14
ATOM     13  C   UNK A   2      53.296  24.229   0.379  0.00  0.00    +0.000 C 
ATOM     14  N   VAL A   3      52.940  25.261   1.159  0.00  0.00    +0.000 N 
ATOM     15  H   VAL A   3      53.164  25.210   2.173  0.00  0.00    +0.000 HD
ATOM     16  O   UNK A   2      53.145  24.184  -0.867  0.00  0.00    +0.000 OA
BRANCH  13  17
ATOM     17  C   UNK A   2      54.163  23.156   1.052  0.00  0.00    +0.000 C 
BRANCH  17  19
ATOM     18  C   UNK A   1      56.355  24.315   1.263  0.00  0.00    +0.000 C 
ATOM     19  N   UNK A   2      55.306  23.728   1.824  0.00  0.00    +0.000 N 
ATOM     20  H   UNK A   2      55.278  23.662   2.862  0.00  0.00    +0.000 HD
ATOM     21  O   UNK A   1      56.538  24.389   0.032  0.00  0.00    +0.000 OA
BRANCH  18  22
ATOM     22  C   UNK A   1      57.370  24.925   2.204  0.00  0.00    +0.000 C 
BRANCH  22  23
ATOM     23  N   UNK A   1      56.777  25.371   3.471  0.00  0.00    +0.000 NA
ATOM     24  H   UNK A   1      56.992  24.862   4.352  0.00  0.00    +0.000 HD
ENDBRANCH  22  23
BRANCH  22  25
ATOM     25  C   UNK A   1      58.569  23.973   2.371  0.00  0.00    +0.000 C 
BRANCH  25  26
ATOM     26  C   UNK A   1      58.245  22.734   3.204  0.00  0.00    +0.000 C 
ATOM     27  O   UNK A   1      57.127  22.563   3.771  0.00  0.00    +0.000 OA
ATOM     28  O   UNK A   1      59.211  22.043   3.604  0.00  0.00    +0.000 OA
ENDBRANCH  25  26
ENDBRANCH  22  25
ENDBRANCH  18  22
ENDBRANCH  17  19
BRANCH  17  29
ATOM     29  C   UNK A   2      53.317  22.253   1.971  0.00  0.00    +0.000 C 
ATOM     30  C   UNK A   2      54.162  21.059   2.452  0.00  0.00    +0.000 C 
ATOM     31  C   UNK A   2      51.961  21.830   1.353  0.00  0.00    +0.000 C 
ENDBRANCH  17  29
ENDBRANCH  13  17
ENDBRANCH  12  14
BRANCH  12  32
ATOM     32  CB  VAL A   3      51.934  27.426   1.816  0.00  0.00    +0.000 C 
ATOM     33  CG2 VAL A   3      50.925  26.786   2.800  0.00  0.00    +0.000 C 
ATOM     34  CG1 VAL A   3      51.376  28.746   1.269  0.00  0.00    +0.000 C 
ENDBRANCH  12  32
ENDBRANCH   8  12
ENDBRANCH   6   9
ENDBRANCH   2   6
ENDBRANCH   1   3
BRANCH   1  35
ATOM     35  C   UNK A   5      54.481  25.178  -4.371  0.00  0.00    +0.000 C 
ATOM     36  N   GLU A   6      53.300  25.221  -3.756  0.00  0.00    +0.000 N 
ATOM     37  H   GLU A   6      53.276  25.164  -2.718  0.00  0.00    +0.000 HD
ATOM     38  O   UNK A   5      54.691  25.359  -5.599  0.00  0.00    +0.000 OA
BRANCH  36  39
ATOM     39  CA  GLU A   6      52.042  25.344  -4.478  0.00  0.00    +0.000 C 
BRANCH  39  40
ATOM     40  C   GLU A   6      51.853  26.671  -5.206  0.00  0.00    +0.000 C 
ATOM     41  N   LEU A   7      52.278  27.718  -4.554  0.00  0.00    +0.000 N 
ATOM     42  H   LEU A   7      52.717  27.592  -3.620  0.00  0.00    +0.000 HD
ATOM     43  O   GLU A   6      51.473  26.703  -6.402  0.00  0.00    +0.000 OA
BRANCH  41  44
ATOM     44  CA  LEU A   7      52.150  29.069  -5.110  0.00  0.00    +0.000 C 
BRANCH  44  45
ATOM     45  C   LEU A   7      53.147  29.327  -6.231  0.00  0.00    +0.000 C 
ATOM     46  O   LEU A   7      52.804  29.918  -7.282  0.00  0.00    +0.000 OA
ENDBRANCH  44  45
BRANCH  44  47
ATOM     47  CB  LEU A   7      52.333  30.069  -3.951  0.00  0.00    +0.000 C 
BRANCH  47  48
ATOM     48  CG  LEU A   7      51.304  31.215  -3.960  0.00  0.00    +0.000 C 
ATOM     49  CD2 LEU A   7      51.920  32.596  -4.168  0.00  0.00    +0.000 C 
ATOM     50  CD1 LEU A   7      50.156  31.017  -4.967  0.00  0.00    +0.000 C 
ENDBRANCH  47  48
ENDBRANCH  44  47
ENDBRANCH  41  44
ENDBRANCH  39  40
BRANCH  39  51
ATOM     51  CB  GLU A   6      50.806  24.966  -3.637  0.00  0.00    +0.000 C 
BRANCH  51  52
ATOM     52  CG  GLU A   6      50.811  23.510  -3.087  0.00  0.00    +0.000 C 
BRANCH  52  53
ATOM     53  CD  GLU A   6      51.134  22.385  -4.089  0.00  0.00    +0.000 C 
ATOM     54  OE2 GLU A   6      51.294  21.221  -3.652  0.00  0.00    +0.000 OA
ATOM     55  OE1 GLU A   6      50.867  22.487  -5.304  0.00  0.00    +0.000 OA
ENDBRANCH  52  53
ENDBRANCH  51  52
ENDBRANCH  39  51
ENDBRANCH  36  39
ENDBRANCH   1  35
BRANCH   1  56
ATOM     56  C   UNK A   5      55.813  23.559  -2.929  0.00  0.00    +0.000 C 
BRANCH  56  57
ATOM     57  C   UNK A   5      55.873  22.489  -4.041  0.00  0.00    +0.000 A 
ATOM     58  N   UNK A   5      57.038  21.730  -4.293  0.00  0.00    +0.000 NA
ATOM     59  C   UNK A   5      56.753  20.853  -5.340  0.00  0.00    +0.000 A 
ATOM     60  N   UNK A   5      55.398  21.070  -5.718  0.00  0.00    +0.000 N 
ATOM     61  C   UNK A   5      54.901  22.082  -4.882  0.00  0.00    +0.000 A 
BRANCH  60  62
ATOM     62 ZN   UNK A   5      54.519  20.316  -7.288  0.00  0.00    +0.000 Zn
BRANCH  62  63
ATOM     63  N   UNK A   1      53.941  22.004  -8.276  0.00  0.00    +0.000 N 
ATOM     64  C   UNK A   1      53.176  23.128  -7.980  0.00  0.00    +0.000 A 
ATOM     65  C   UNK A   1      53.205  23.944  -9.028  0.00  0.00    +0.000 A 
ATOM     66  N   UNK A   1      54.052  23.379 -10.004  0.00  0.00    +0.000 NA
ATOM     67  C   UNK A   1      54.486  22.150  -9.539  0.00  0.00    +0.000 A 
BRANCH  65  68
ATOM     68  C   UNK A   1      52.477  25.289  -9.245  0.00  0.00    +0.000 C 
BRANCH  68  69
ATOM     69  C   UNK A   1      53.448  26.435  -9.587  0.00  0.00    +0.000 C 
BRANCH  69  70
ATOM     70  C   UNK A   1      52.663  27.423 -10.437  0.00  0.00    +0.000 C 
ATOM     71  O   UNK A   1      52.790  27.392 -11.684  0.00  0.00    +0.000 OA
ENDBRANCH  69  70
BRANCH  69  72
ATOM     72  N   UNK A   1      54.014  27.056  -8.375  0.00  0.00    +0.000 NA
ATOM     73  H   UNK A   1      53.676  26.751  -7.440  0.00  0.00    +0.000 HD
ENDBRANCH  69  72
ENDBRANCH  68  69
ENDBRANCH  65  68
ENDBRANCH  62  63
BRANCH  62  74
ATOM     74  O   UNK A   2      55.466  19.571  -8.827  0.00  0.00    +0.000 OA
BRANCH  74  75
ATOM     75  C   UNK A   2      56.386  18.762  -8.586  0.00  0.00    +0.000 C 
ATOM     76  O   UNK A   2      56.917  18.751  -7.447  0.00  0.00    +0.000 OA
BRANCH  75  77
ATOM     77  C   UNK A   2      57.218  18.268  -9.744  0.00  0.00    +0.000 C 
BRANCH  77  78
ATOM     78  C   UNK A   2      58.631  18.822  -9.453  0.00  0.00    +0.000 C 
BRANCH  78  79
ATOM     79  C   UNK A   2      58.775  20.374  -9.579  0.00  0.00    +0.000 C 
BRANCH  79  80
ATOM     80  N   UNK A   2      58.801  20.828 -11.003  0.00  0.00    +0.000 N 
ATOM     81  C   UNK A   1      58.633  22.092 -11.376  0.00  0.00    +0.000 C 
ATOM     82  O   UNK A   1      58.524  23.064 -10.576  0.00  0.00    +0.000 OA
ATOM     83  H   UNK A   2      58.959  20.115 -11.743  0.00  0.00    +0.000 HD
BRANCH  81  84
ATOM     84  C   UNK A   1      58.743  22.344 -12.884  0.00  0.00    +0.000 C 
BRANCH  84  85
ATOM     85  N   UNK A   1      59.907  21.668 -13.492  0.00  0.00    +0.000 NA
ATOM     86  H   UNK A   1      59.756  20.978 -14.255  0.00  0.00    +0.000 HD
ENDBRANCH  84  85
BRANCH  84  87
ATOM     87  C   UNK A   1      57.455  21.947 -13.682  0.00  0.00    +0.000 C 
BRANCH  87  88
ATOM     88  C   UNK A   1      56.225  22.769 -13.265  0.00  0.00    +0.000 C 
ATOM     89  O   UNK A   1      56.020  23.095 -12.078  0.00  0.00    +0.000 OA
ATOM     90  N   UNK A   1      55.460  23.185 -14.236  0.00  0.00    +0.000 N 
ATOM     91  H   UNK A   1      54.652  23.807 -14.031  0.00  0.00    +0.000 HD
ATOM     92  H   UNK A   1      55.658  22.895 -15.215  0.00  0.00    +0.000 HD
ENDBRANCH  87  88
ENDBRANCH  84  87
ENDBRANCH  81  84
ENDBRANCH  79  80
BRANCH  79  93
ATOM     93  C   UNK A   2      59.955  20.853  -8.726  0.00  0.00    +0.000 C 
ATOM     94  O   UNK A   2      59.719  21.339  -7.596  0.00  0.00    +0.000 OA
ENDBRANCH  79  93
ENDBRANCH  78  79
ENDBRANCH  77  78
ENDBRANCH  75  77
ENDBRANCH  74  75
ENDBRANCH  62  74
ENDBRANCH  60  62
ENDBRANCH  56  57
ENDBRANCH   1  56
TORSDOF 42
REMARK  Name = ../refined-set-2016/1tmn/1tmn_pocket.pdb
REMARK  159 active torsions:
REMARK  status: ('A' for Active; 'I' for Inactive)
REMARK    1  A    between atoms: _1  and  _3
REMARK    2  A    between atoms: _3  and  _4
REMARK    3  A    between atoms: _3  and  _6
REMARK    4  A    between atoms: _6  and  _7
REMARK    5  A    between atoms: _12  and  _13
REMARK    6  A    between atoms: _15  and  _17
REMARK    7  A    between atoms: _17  and  _18
REMARK    8  A    between atoms: _17  and  _20
REMARK    9  A    between atoms: _20  and  _21
REMARK   10  A    between atoms: _26  and  _27
REMARK   11  A    between atoms: _29  and  _31
REMARK   12  A    between atoms: _31  and  _32
REMARK   13  A    between atoms: _31  and  _34
REMARK   14  A    between atoms: _34  and  _35
REMARK   15  A    between atoms: _40  and  _42
REMARK   16  A    between atoms: _42  and  _43
REMARK   17  A    between atoms: _42  and  _45
REMARK   18  A    between atoms: _45  and  _46
REMARK   19  A    between atoms: _51  and  _53
REMARK   20  A    between atoms: _53  and  _54
REMARK   21  A    between atoms: _57  and  _59
REMARK   22  A    between atoms: _59  and  _60
REMARK   23  A    between atoms: _59  and  _62
REMARK   24  A    between atoms: _62  and  _63
REMARK   25  A    between atoms: _69  and  _71
REMARK   26  A    between atoms: _71  and  _72
REMARK   27  A    between atoms: _71  and  _74
REMARK   28  A    between atoms: _74  and  _75
REMARK   29  A    between atoms: _85  and  _87
REMARK   30  A    between atoms: _87  and  _88
REMARK   31  A    between atoms: _87  and  _90
REMARK   32  A    between atoms: _93  and  _95
REMARK   33  A    between atoms: _95  and  _96
REMARK   34  A    between atoms: _95  and  _98
REMARK   35  A    between atoms: _98  and  _99
REMARK   36  A    between atoms: _104  and  _105
REMARK   37  A    between atoms: _107  and  _109
REMARK   38  A    between atoms: _109  and  _110
REMARK   39  A    between atoms: _109  and  _112
REMARK   40  A    between atoms: _112  and  _113
REMARK   41  A    between atoms: _116  and  _118
REMARK   42  A    between atoms: _118  and  _119
REMARK   43  A    between atoms: _118  and  _121
REMARK   44  A    between atoms: _121  and  _122
REMARK   45  A    between atoms: _128  and  _130
REMARK   46  A    between atoms: _130  and  _131
REMARK   47  A    between atoms: _130  and  _133
REMARK   48  A    between atoms: _133  and  _134
REMARK   49  A    between atoms: _137  and  _139
REMARK   50  A    between atoms: _139  and  _140
REMARK   51  A    between atoms: _142  and  _144
REMARK   52  A    between atoms: _144  and  _145
REMARK   53  A    between atoms: _144  and  _147
REMARK   54  A    between atoms: _147  and  _148
REMARK   55  A    between atoms: _151  and  _153
REMARK   56  A    between atoms: _153  and  _154
REMARK   57  A    between atoms: _153  and  _156
REMARK   58  A    between atoms: _159  and  _161
REMARK   59  A    between atoms: _161  and  _162
REMARK   60  A    between atoms: _161  and  _164
REMARK   61  A    between atoms: _167  and  _169
REMARK   62  A    between atoms: _169  and  _170
REMARK   63  A    between atoms: _173  and  _175
REMARK   64  A    between atoms: _175  and  _176
REMARK   65  A    between atoms: _175  and  _178
REMARK   66  A    between atoms: _178  and  _179
REMARK   67  A    between atoms: _183  and  ZN_399
REMARK   68  A    between atoms: _184  and  _186
REMARK   69  A    between atoms: _186  and  _187
REMARK   70  A    between atoms: _186  and  _189
REMARK   71  A    between atoms: _189  and  _190
REMARK   72  A    between atoms: _190  and  _191
REMARK   73  A    between atoms: _194  and  _196
REMARK   74  A    between atoms: _196  and  _197
REMARK   75  A    between atoms: _196  and  _199
REMARK   76  A    between atoms: _199  and  _200
REMARK   77  A    between atoms: _203  and  _205
REMARK   78  A    between atoms: _205  and  _206
REMARK   79  A    between atoms: _205  and  _208
REMARK   80  A    between atoms: _208  and  _209
REMARK   81  A    between atoms: _213  and  ZN_399
REMARK   82  A    between atoms: _214  and  _216
REMARK   83  A    between atoms: _216  and  _217
REMARK   84  A    between atoms: _216  and  _219
REMARK   85  A    between atoms: _219  and  _220
REMARK   86  A    between atoms: _225  and  _226
REMARK   87  A    between atoms: _228  and  _230
REMARK   88  A    between atoms: _230  and  _231
REMARK   89  A    between atoms: _233  and  _235
REMARK   90  A    between atoms: _235  and  _236
REMARK   91  A    between atoms: _235  and  _238
REMARK   92  A    between atoms: _238  and  _239
REMARK   93  A    between atoms: _244  and  _246
REMARK   94  A    between atoms: _246  and  _247
REMARK   95  A    between atoms: _246  and  _249
REMARK   96  A    between atoms: _249  and  _250
REMARK   97  A    between atoms: _250  and  _251
REMARK   98  A    between atoms: _251  and  _252
REMARK   99  A    between atoms: _252  and  ZN_399
REMARK  100  A    between atoms: _254  and  _256
REMARK  101  A    between atoms: _256  and  _257
REMARK  102  A    between atoms: _256  and  _259
REMARK  103  A    between atoms: _259  and  _260
REMARK  104  A    between atoms: _262  and  _264
REMARK  105  A    between atoms: _264  and  _265
REMARK  106  A    between atoms: _264  and  _267
REMARK  107  A    between atoms: _267  and  _268
REMARK  108  A    between atoms: _271  and  _273
REMARK  109  A    between atoms: _273  and  _274
REMARK  110  A    between atoms: _273  and  _276
REMARK  111  A    between atoms: _276  and  _277
REMARK  112  A    between atoms: _280  and  _282
REMARK  113  A    between atoms: _282  and  _283
REMARK  114  A    between atoms: _285  and  _287
REMARK  115  A    between atoms: _287  and  _288
REMARK  116  A    between atoms: _287  and  _290
REMARK  117  A    between atoms: _290  and  _291
REMARK  118  A    between atoms: _291  and  _292
REMARK  119  A    between atoms: _295  and  _297
REMARK  120  A    between atoms: _297  and  _298
REMARK  121  A    between atoms: _297  and  _300
REMARK  122  A    between atoms: _303  and  _305
REMARK  123  A    between atoms: _305  and  _306
REMARK  124  A    between atoms: _305  and  _308
REMARK  125  A    between atoms: _308  and  _309
REMARK  126  A    between atoms: _314  and  _315
REMARK  127  A    between atoms: _317  and  _319
REMARK  128  A    between atoms: _319  and  _320
REMARK  129  A    between atoms: _319  and  _322
REMARK  130  A    between atoms: _322  and  _323
REMARK  131  A    between atoms: _326  and  _328
REMARK  132  A    between atoms: _328  and  _329
REMARK  133  A    between atoms: _328  and  _331
REMARK  134  A    between atoms: _331  and  _332
REMARK  135  A    between atoms: _332  and  _333
REMARK  136  A    between atoms: _333  and  _334
REMARK  137  A    between atoms: _343  and  _345
REMARK  138  A    between atoms: _345  and  _346
REMARK  139  A    between atoms: _345  and  _348
REMARK  140  A    between atoms: _348  and  _349
REMARK  141  A    between atoms: _352  and  _354
REMARK  142  A    between atoms: _354  and  _355
REMARK  143  A    between atoms: _354  and  _357
REMARK  144  A    between atoms: _357  and  _358
REMARK  145  A    between atoms: _363  and  _365
REMARK  146  A    between atoms: _365  and  _366
REMARK  147  A    between atoms: _365  and  _368
REMARK  148  A    between atoms: _371  and  _373
REMARK  149  A    between atoms: _373  and  _374
REMARK  150  A    between atoms: _373  and  _376
REMARK  151  A    between atoms: _376  and  _377
REMARK  152  A    between atoms: _382  and  _384
REMARK  153  A    between atoms: _384  and  _385
REMARK  154  A    between atoms: _384  and  _387
REMARK  155  A    between atoms: _387  and  _388
REMARK  156  A    between atoms: _391  and  _393
REMARK  157  A    between atoms: _393  and  _394
REMARK  158  A    between atoms: _393  and  _396
REMARK  159  A    between atoms: _396  and  _397
REMARK                            x       y       z     vdW  Elec       q    Type
REMARK                         _______ _______ _______ _____ _____    ______ ____
ROOT
ATOM      1  CG  TYR A   1      53.108  18.750 -14.187  0.00  0.00    -0.020 A 
ATOM      2  CD2 TYR A   1      53.818  19.643 -13.418  0.00  0.00    -0.001 A 
ATOM      3  CE2 TYR A   1      54.003  19.404 -12.063  0.00  0.00    +0.036 A 
ATOM      4  CZ  TYR A   1      53.472  18.258 -11.475  0.00  0.00    +0.134 A 
ATOM      5  CE1 TYR A   1      52.763  17.354 -12.234  0.00  0.00    +0.036 A 
ATOM      6  CD1 TYR A   1      52.583  17.606 -13.605  0.00  0.00    -0.001 A 
ENDROOT
BRANCH   4   7
ATOM      7  OH  TYR A   1      53.634  18.013 -10.086  0.00  0.00    -0.506 OA
ATOM      8  HH  TYR A   1      54.599  17.959  -9.872  0.00  0.00    +0.292 HD
ENDBRANCH   4   7
BRANCH   1   9
ATOM      9  CB  TYR A   1      52.905  19.044 -15.679  0.00  0.00    +0.051 C 
BRANCH   9  10
ATOM     10  CA  TYR A   1      54.078  18.840 -16.521  0.00  0.00    +0.137 C 
BRANCH  10  11
ATOM     11  N   TYR A   1      54.046  19.723 -17.672  0.00  0.00    -0.239 NA
ATOM     12  H   TYR A   1      53.129  20.076 -18.012  0.00  0.00    +0.142 HD
ENDBRANCH  10  11
BRANCH  10  13
ATOM     13  C   TYR A   1      54.261  17.369 -16.895  0.00  0.00    +0.224 C 
ATOM     14  O   TYR A   1      53.489  16.458 -16.489  0.00  0.00    -0.287 OA
ENDBRANCH  10  13
ENDBRANCH   9  10
ENDBRANCH   1   9
TORSDOF 5
REMARK  Name = ../refined-set-2016/1tmn/1tmn_pocket.pdb
REMARK  159 active torsions:
REMARK  status: ('A' for Active; 'I' for Inactive)
REMARK    1  A    between atoms: _1  and  _3
REMARK    2  A    between atoms: _3  and  _4
REMARK    3  A    between atoms: _3  and  _6
REMARK    4  A    between atoms: _6  and  _7
REMARK    5  A    between atoms: _12  and  _13
REMARK    6  A    between atoms: _15  and  _17
REMARK    7  A    between atoms: _17  and  _18
REMARK    8  A    between atoms: _17  and  _20
REMARK    9  A    between atoms: _20  and  _21
REMARK   10  A    between atoms: _26  and  _27
REMARK   11  A    between atoms: _29  and  _31
REMARK   12  A    between atoms: _31  and  _32
REMARK   13  A    between atoms: _31  and  _34
REMARK   14  A    between atoms: _34  and  _35
REMARK   15  A    between atoms: _40  and  _42
REMARK   16  A    between atoms: _42  and  _43
REMARK   17  A    between atoms: _42  and  _45
REMARK   18  A    between atoms: _45  and  _46
REMARK   19  A    between atoms: _51  and  _53
REMARK   20  A    between atoms: _53  and  _54
REMARK   21  A    between atoms: _57  and  _59
REMARK   22  A    between atoms: _59  and  _60
REMARK   23  A    between atoms: _59  and  _62
REMARK   24  A    between atoms: _62  and  _63
REMARK   25  A    between atoms: _69  and  _71
REMARK   26  A    between atoms: _71  and  _72
REMARK   27  A    between atoms: _71  and  _74
REMARK   28  A    between atoms: _74  and  _75
REMARK   29  A    between atoms: _85  and  _87
REMARK   30  A    between atoms: _87  and  _88
REMARK   31  A    between atoms: _87  and  _90
REMARK   32  A    between atoms: _93  and  _95
REMARK   33  A    between atoms: _95  and  _96
REMARK   34  A    between atoms: _95  and  _98
REMARK   35  A    between atoms: _98  and  _99
REMARK   36  A    between atoms: _104  and  _105
REMARK   37  A    between atoms: _107  and  _109
REMARK   38  A    between atoms: _109  and  _110
REMARK   39  A    between atoms: _109  and  _112
REMARK   40  A    between atoms: _112  and  _113
REMARK   41  A    between atoms: _116  and  _118
REMARK   42  A    between atoms: _118  and  _119
REMARK   43  A    between atoms: _118  and  _121
REMARK   44  A    between atoms: _121  and  _122
REMARK   45  A    between atoms: _128  and  _130
REMARK   46  A    between atoms: _130  and  _131
REMARK   47  A    between atoms: _130  and  _133
REMARK   48  A    between atoms: _133  and  _134
REMARK   49  A    between atoms: _137  and  _139
REMARK   50  A    between atoms: _139  and  _140
REMARK   51  A    between atoms: _142  and  _144
REMARK   52  A    between atoms: _144  and  _145
REMARK   53  A    between atoms: _144  and  _147
REMARK   54  A    between atoms: _147  and  _148
REMARK   55  A    between atoms: _151  and  _153
REMARK   56  A    between atoms: _153  and  _154
REMARK   57  A    between atoms: _153  and  _156
REMARK   58  A    between atoms: _159  and  _161
REMARK   59  A    between atoms: _161  and  _162
REMARK   60  A    between atoms: _161  and  _164
REMARK   61  A    between atoms: _167  and  _169
REMARK   62  A    between atoms: _169  and  _170
REMARK   63  A    between atoms: _173  and  _175
REMARK   64  A    between atoms: _175  and  _176
REMARK   65  A    between atoms: _175  and  _178
REMARK   66  A    between atoms: _178  and  _179
REMARK   67  A    between atoms: _183  and  ZN_399
REMARK   68  A    between atoms: _184  and  _186
REMARK   69  A    between atoms: _186  and  _187
REMARK   70  A    between atoms: _186  and  _189
REMARK   71  A    between atoms: _189  and  _190
REMARK   72  A    between atoms: _190  and  _191
REMARK   73  A    between atoms: _194  and  _196
REMARK   74  A    between atoms: _196  and  _197
REMARK   75  A    between atoms: _196  and  _199
REMARK   76  A    between atoms: _199  and  _200
REMARK   77  A    between atoms: _203  and  _205
REMARK   78  A    between atoms: _205  and  _206
REMARK   79  A    between atoms: _205  and  _208
REMARK   80  A    between atoms: _208  and  _209
REMARK   81  A    between atoms: _213  and  ZN_399
REMARK   82  A    between atoms: _214  and  _216
REMARK   83  A    between atoms: _216  and  _217
REMARK   84  A    between atoms: _216  and  _219
REMARK   85  A    between atoms: _219  and  _220
REMARK   86  A    between atoms: _225  and  _226
REMARK   87  A    between atoms: _228  and  _230
REMARK   88  A    between atoms: _230  and  _231
REMARK   89  A    between atoms: _233  and  _235
REMARK   90  A    between atoms: _235  and  _236
REMARK   91  A    between atoms: _235  and  _238
REMARK   92  A    between atoms: _238  and  _239
REMARK   93  A    between atoms: _244  and  _246
REMARK   94  A    between atoms: _246  and  _247
REMARK   95  A    between atoms: _246  and  _249
REMARK   96  A    between atoms: _249  and  _250
REMARK   97  A    between atoms: _250  and  _251
REMARK   98  A    between atoms: _251  and  _252
REMARK   99  A    between atoms: _252  and  ZN_399
REMARK  100  A    between atoms: _254  and  _256
REMARK  101  A    between atoms: _256  and  _257
REMARK  102  A    between atoms: _256  and  _259
REMARK  103  A    between atoms: _259  and  _260
REMARK  104  A    between atoms: _262  and  _264
REMARK  105  A    between atoms: _264  and  _265
REMARK  106  A    between atoms: _264  and  _267
REMARK  107  A    between atoms: _267  and  _268
REMARK  108  A    between atoms: _271  and  _273
REMARK  109  A    between atoms: _273  and  _274
REMARK  110  A    between atoms: _273  and  _276
REMARK  111  A    between atoms: _276  and  _277
REMARK  112  A    between atoms: _280  and  _282
REMARK  113  A    between atoms: _282  and  _283
REMARK  114  A    between atoms: _285  and  _287
REMARK  115  A    between atoms: _287  and  _288
REMARK  116  A    between atoms: _287  and  _290
REMARK  117  A    between atoms: _290  and  _291
REMARK  118  A    between atoms: _291  and  _292
REMARK  119  A    between atoms: _295  and  _297
REMARK  120  A    between atoms: _297  and  _298
REMARK  121  A    between atoms: _297  and  _300
REMARK  122  A    between atoms: _303  and  _305
REMARK  123  A    between atoms: _305  and  _306
REMARK  124  A    between atoms: _305  and  _308
REMARK  125  A    between atoms: _308  and  _309
REMARK  126  A    between atoms: _314  and  _315
REMARK  127  A    between atoms: _317  and  _319
REMARK  128  A    between atoms: _319  and  _320
REMARK  129  A    between atoms: _319  and  _322
REMARK  130  A    between atoms: _322  and  _323
REMARK  131  A    between atoms: _326  and  _328
REMARK  132  A    between atoms: _328  and  _329
REMARK  133  A    between atoms: _328  and  _331
REMARK  134  A    between atoms: _331  and  _332
REMARK  135  A    between atoms: _332  and  _333
REMARK  136  A    between atoms: _333  and  _334
REMARK  137  A    between atoms: _343  and  _345
REMARK  138  A    between atoms: _345  and  _346
REMARK  139  A    between atoms: _345  and  _348
REMARK  140  A    between atoms: _348  and  _349
REMARK  141  A    between atoms: _352  and  _354
REMARK  142  A    between atoms: _354  and  _355
REMARK  143  A    between atoms: _354  and  _357
REMARK  144  A    between atoms: _357  and  _358
REMARK  145  A    between atoms: _363  and  _365
REMARK  146  A    between atoms: _365  and  _366
REMARK  147  A    between atoms: _365  and  _368
REMARK  148  A    between atoms: _371  and  _373
REMARK  149  A    between atoms: _373  and  _374
REMARK  150  A    between atoms: _373  and  _376
REMARK  151  A    between atoms: _376  and  _377
REMARK  152  A    between atoms: _382  and  _384
REMARK  153  A    between atoms: _384  and  _385
REMARK  154  A    between atoms: _384  and  _387
REMARK  155  A    between atoms: _387  and  _388
REMARK  156  A    between atoms: _391  and  _393
REMARK  157  A    between atoms: _393  and  _394
REMARK  158  A    between atoms: _393  and  _396
REMARK  159  A    between atoms: _396  and  _397
REMARK                            x       y       z     vdW  Elec       q    Type
REMARK                         _______ _______ _______ _____ _____    ______ ____
ROOT
ATOM      1  CA  GLY A   1      57.969  18.476 -15.565  0.00  0.00    +0.156 C 
ENDROOT
BRANCH   1   2
ATOM      2  N   GLY A   1      58.774  18.604 -16.783  0.00  0.00    -0.238 NA
ATOM      3  H   GLY A   1      58.819  17.817 -17.462  0.00  0.00    +0.142 HD
ENDBRANCH   1   2
BRANCH   1   4
ATOM      4  C   GLY A   1      58.812  18.365 -14.300  0.00  0.00    +0.226 C 
ATOM      5  O   GLY A   1      58.443  18.838 -13.198  0.00  0.00    -0.287 OA
ENDBRANCH   1   4
TORSDOF 2
REMARK  Name = ../refined-set-2016/1tmn/1tmn_pocket.pdb
REMARK  159 active torsions:
REMARK  status: ('A' for Active; 'I' for Inactive)
REMARK    1  A    between atoms: _1  and  _3
REMARK    2  A    between atoms: _3  and  _4
REMARK    3  A    between atoms: _3  and  _6
REMARK    4  A    between atoms: _6  and  _7
REMARK    5  A    between atoms: _12  and  _13
REMARK    6  A    between atoms: _15  and  _17
REMARK    7  A    between atoms: _17  and  _18
REMARK    8  A    between atoms: _17  and  _20
REMARK    9  A    between atoms: _20  and  _21
REMARK   10  A    between atoms: _26  and  _27
REMARK   11  A    between atoms: _29  and  _31
REMARK   12  A    between atoms: _31  and  _32
REMARK   13  A    between atoms: _31  and  _34
REMARK   14  A    between atoms: _34  and  _35
REMARK   15  A    between atoms: _40  and  _42
REMARK   16  A    between atoms: _42  and  _43
REMARK   17  A    between atoms: _42  and  _45
REMARK   18  A    between atoms: _45  and  _46
REMARK   19  A    between atoms: _51  and  _53
REMARK   20  A    between atoms: _53  and  _54
REMARK   21  A    between atoms: _57  and  _59
REMARK   22  A    between atoms: _59  and  _60
REMARK   23  A    between atoms: _59  and  _62
REMARK   24  A    between atoms: _62  and  _63
REMARK   25  A    between atoms: _69  and  _71
REMARK   26  A    between atoms: _71  and  _72
REMARK   27  A    between atoms: _71  and  _74
REMARK   28  A    between atoms: _74  and  _75
REMARK   29  A    between atoms: _85  and  _87
REMARK   30  A    between atoms: _87  and  _88
REMARK   31  A    between atoms: _87  and  _90
REMARK   32  A    between atoms: _93  and  _95
REMARK   33  A    between atoms: _95  and  _96
REMARK   34  A    between atoms: _95  and  _98
REMARK   35  A    between atoms: _98  and  _99
REMARK   36  A    between atoms: _104  and  _105
REMARK   37  A    between atoms: _107  and  _109
REMARK   38  A    between atoms: _109  and  _110
REMARK   39  A    between atoms: _109  and  _112
REMARK   40  A    between atoms: _112  and  _113
REMARK   41  A    between atoms: _116  and  _118
REMARK   42  A    between atoms: _118  and  _119
REMARK   43  A    between atoms: _118  and  _121
REMARK   44  A    between atoms: _121  and  _122
REMARK   45  A    between atoms: _128  and  _130
REMARK   46  A    between atoms: _130  and  _131
REMARK   47  A    between atoms: _130  and  _133
REMARK   48  A    between atoms: _133  and  _134
REMARK   49  A    between atoms: _137  and  _139
REMARK   50  A    between atoms: _139  and  _140
REMARK   51  A    between atoms: _142  and  _144
REMARK   52  A    between atoms: _144  and  _145
REMARK   53  A    between atoms: _144  and  _147
REMARK   54  A    between atoms: _147  and  _148
REMARK   55  A    between atoms: _151  and  _153
REMARK   56  A    between atoms: _153  and  _154
REMARK   57  A    between atoms: _153  and  _156
REMARK   58  A    between atoms: _159  and  _161
REMARK   59  A    between atoms: _161  and  _162
REMARK   60  A    between atoms: _161  and  _164
REMARK   61  A    between atoms: _167  and  _169
REMARK   62  A    between atoms: _169  and  _170
REMARK   63  A    between atoms: _173  and  _175
REMARK   64  A    between atoms: _175  and  _176
REMARK   65  A    between atoms: _175  and  _178
REMARK   66  A    between atoms: _178  and  _179
REMARK   67  A    between atoms: _183  and  ZN_399
REMARK   68  A    between atoms: _184  and  _186
REMARK   69  A    between atoms: _186  and  _187
REMARK   70  A    between atoms: _186  and  _189
REMARK   71  A    between atoms: _189  and  _190
REMARK   72  A    between atoms: _190  and  _191
REMARK   73  A    between atoms: _194  and  _196
REMARK   74  A    between atoms: _196  and  _197
REMARK   75  A    between atoms: _196  and  _199
REMARK   76  A    between atoms: _199  and  _200
REMARK   77  A    between atoms: _203  and  _205
REMARK   78  A    between atoms: _205  and  _206
REMARK   79  A    between atoms: _205  and  _208
REMARK   80  A    between atoms: _208  and  _209
REMARK   81  A    between atoms: _213  and  ZN_399
REMARK   82  A    between atoms: _214  and  _216
REMARK   83  A    between atoms: _216  and  _217
REMARK   84  A    between atoms: _216  and  _219
REMARK   85  A    between atoms: _219  and  _220
REMARK   86  A    between atoms: _225  and  _226
REMARK   87  A    between atoms: _228  and  _230
REMARK   88  A    between atoms: _230  and  _231
REMARK   89  A    between atoms: _233  and  _235
REMARK   90  A    between atoms: _235  and  _236
REMARK   91  A    between atoms: _235  and  _238
REMARK   92  A    between atoms: _238  and  _239
REMARK   93  A    between atoms: _244  and  _246
REMARK   94  A    between atoms: _246  and  _247
REMARK   95  A    between atoms: _246  and  _249
REMARK   96  A    between atoms: _249  and  _250
REMARK   97  A    between atoms: _250  and  _251
REMARK   98  A    between atoms: _251  and  _252
REMARK   99  A    between atoms: _252  and  ZN_399
REMARK  100  A    between atoms: _254  and  _256
REMARK  101  A    between atoms: _256  and  _257
REMARK  102  A    between atoms: _256  and  _259
REMARK  103  A    between atoms: _259  and  _260
REMARK  104  A    between atoms: _262  and  _264
REMARK  105  A    between atoms: _264  and  _265
REMARK  106  A    between atoms: _264  and  _267
REMARK  107  A    between atoms: _267  and  _268
REMARK  108  A    between atoms: _271  and  _273
REMARK  109  A    between atoms: _273  and  _274
REMARK  110  A    between atoms: _273  and  _276
REMARK  111  A    between atoms: _276  and  _277
REMARK  112  A    between atoms: _280  and  _282
REMARK  113  A    between atoms: _282  and  _283
REMARK  114  A    between atoms: _285  and  _287
REMARK  115  A    between atoms: _287  and  _288
REMARK  116  A    between atoms: _287  and  _290
REMARK  117  A    between atoms: _290  and  _291
REMARK  118  A    between atoms: _291  and  _292
REMARK  119  A    between atoms: _295  and  _297
REMARK  120  A    between atoms: _297  and  _298
REMARK  121  A    between atoms: _297  and  _300
REMARK  122  A    between atoms: _303  and  _305
REMARK  123  A    between atoms: _305  and  _306
REMARK  124  A    between atoms: _305  and  _308
REMARK  125  A    between atoms: _308  and  _309
REMARK  126  A    between atoms: _314  and  _315
REMARK  127  A    between atoms: _317  and  _319
REMARK  128  A    between atoms: _319  and  _320
REMARK  129  A    between atoms: _319  and  _322
REMARK  130  A    between atoms: _322  and  _323
REMARK  131  A    between atoms: _326  and  _328
REMARK  132  A    between atoms: _328  and  _329
REMARK  133  A    between atoms: _328  and  _331
REMARK  134  A    between atoms: _331  and  _332
REMARK  135  A    between atoms: _332  and  _333
REMARK  136  A    between atoms: _333  and  _334
REMARK  137  A    between atoms: _343  and  _345
REMARK  138  A    between atoms: _345  and  _346
REMARK  139  A    between atoms: _345  and  _348
REMARK  140  A    between atoms: _348  and  _349
REMARK  141  A    between atoms: _352  and  _354
REMARK  142  A    between atoms: _354  and  _355
REMARK  143  A    between atoms: _354  and  _357
REMARK  144  A    between atoms: _357  and  _358
REMARK  145  A    between atoms: _363  and  _365
REMARK  146  A    between atoms: _365  and  _366
REMARK  147  A    between atoms: _365  and  _368
REMARK  148  A    between atoms: _371  and  _373
REMARK  149  A    between atoms: _373  and  _374
REMARK  150  A    between atoms: _373  and  _376
REMARK  151  A    between atoms: _376  and  _377
REMARK  152  A    between atoms: _382  and  _384
REMARK  153  A    between atoms: _384  and  _385
REMARK  154  A    between atoms: _384  and  _387
REMARK  155  A    between atoms: _387  and  _388
REMARK  156  A    between atoms: _391  and  _393
REMARK  157  A    between atoms: _393  and  _394
REMARK  158  A    between atoms: _393  and  _396
REMARK  159  A    between atoms: _396  and  _397
REMARK                            x       y       z     vdW  Elec       q    Type
REMARK                         _______ _______ _______ _____ _____    ______ ____
ROOT
ATOM      1  C   SER A   1      59.225  24.129  -5.349  0.00  0.00    +0.241 C 
ATOM      2  O   SER A   1      58.996  24.825  -4.329  0.00  0.00    -0.274 OA
ATOM      3  N   ASP A   2      60.088  23.114  -5.370  0.00  0.00    -0.298 N 
ATOM      4  H   ASP A   2      60.246  22.583  -6.250  0.00  0.00    +0.150 HD
ENDROOT
BRANCH   1   5
ATOM      5  CA  SER A   1      58.612  24.577  -6.671  0.00  0.00    +0.174 C 
BRANCH   5   6
ATOM      6  N   SER A   1      59.549  24.492  -7.806  0.00  0.00    -0.236 NA
ATOM      7  H   SER A   1      59.384  23.784  -8.549  0.00  0.00    +0.142 HD
ENDBRANCH   5   6
BRANCH   5   8
ATOM      8  CB  SER A   1      57.313  23.800  -6.960  0.00  0.00    +0.163 C 
BRANCH   8   9
ATOM      9  OG  SER A   1      56.438  24.595  -7.775  0.00  0.00    -0.380 OA
ATOM     10  H   SER A   1      56.889  24.808  -8.630  0.00  0.00    +0.211 HD
ENDBRANCH   8   9
ENDBRANCH   5   8
ENDBRANCH   1   5
BRANCH   3  11
ATOM     11  CA  ASP A   2      60.819  22.745  -4.141  0.00  0.00    +0.148 C 
BRANCH  11  12
ATOM     12  C   ASP A   2      61.839  23.827  -3.744  0.00  0.00    +0.227 C 
ATOM     13  O   ASP A   2      61.976  24.140  -2.532  0.00  0.00    -0.286 OA
ENDBRANCH  11  12
BRANCH  11  14
ATOM     14  CB  ASP A   2      61.553  21.401  -4.328  0.00  0.00    +0.142 C 
BRANCH  14  15
ATOM     15  CG  ASP A   2      60.626  20.210  -4.145  0.00  0.00    +0.367 C 
ATOM     16  OD2 ASP A   2      59.464  20.376  -3.719  0.00  0.00    -0.246 OA
ATOM     17  OD1 ASP A   2      60.944  19.084  -4.582  0.00  0.00    -0.246 OA
ENDBRANCH  14  15
ENDBRANCH  11  14
ENDBRANCH   3  11
TORSDOF 8
REMARK  Name = ../refined-set-2016/1tmn/1tmn_pocket.pdb
REMARK  159 active torsions:
REMARK  status: ('A' for Active; 'I' for Inactive)
REMARK    1  A    between atoms: _1  and  _3
REMARK    2  A    between atoms: _3  and  _4
REMARK    3  A    between atoms: _3  and  _6
REMARK    4  A    between atoms: _6  and  _7
REMARK    5  A    between atoms: _12  and  _13
REMARK    6  A    between atoms: _15  and  _17
REMARK    7  A    between atoms: _17  and  _18
REMARK    8  A    between atoms: _17  and  _20
REMARK    9  A    between atoms: _20  and  _21
REMARK   10  A    between atoms: _26  and  _27
REMARK   11  A    between atoms: _29  and  _31
REMARK   12  A    between atoms: _31  and  _32
REMARK   13  A    between atoms: _31  and  _34
REMARK   14  A    between atoms: _34  and  _35
REMARK   15  A    between atoms: _40  and  _42
REMARK   16  A    between atoms: _42  and  _43
REMARK   17  A    between atoms: _42  and  _45
REMARK   18  A    between atoms: _45  and  _46
REMARK   19  A    between atoms: _51  and  _53
REMARK   20  A    between atoms: _53  and  _54
REMARK   21  A    between atoms: _57  and  _59
REMARK   22  A    between atoms: _59  and  _60
REMARK   23  A    between atoms: _59  and  _62
REMARK   24  A    between atoms: _62  and  _63
REMARK   25  A    between atoms: _69  and  _71
REMARK   26  A    between atoms: _71  and  _72
REMARK   27  A    between atoms: _71  and  _74
REMARK   28  A    between atoms: _74  and  _75
REMARK   29  A    between atoms: _85  and  _87
REMARK   30  A    between atoms: _87  and  _88
REMARK   31  A    between atoms: _87  and  _90
REMARK   32  A    between atoms: _93  and  _95
REMARK   33  A    between atoms: _95  and  _96
REMARK   34  A    between atoms: _95  and  _98
REMARK   35  A    between atoms: _98  and  _99
REMARK   36  A    between atoms: _104  and  _105
REMARK   37  A    between atoms: _107  and  _109
REMARK   38  A    between atoms: _109  and  _110
REMARK   39  A    between atoms: _109  and  _112
REMARK   40  A    between atoms: _112  and  _113
REMARK   41  A    between atoms: _116  and  _118
REMARK   42  A    between atoms: _118  and  _119
REMARK   43  A    between atoms: _118  and  _121
REMARK   44  A    between atoms: _121  and  _122
REMARK   45  A    between atoms: _128  and  _130
REMARK   46  A    between atoms: _130  and  _131
REMARK   47  A    between atoms: _130  and  _133
REMARK   48  A    between atoms: _133  and  _134
REMARK   49  A    between atoms: _137  and  _139
REMARK   50  A    between atoms: _139  and  _140
REMARK   51  A    between atoms: _142  and  _144
REMARK   52  A    between atoms: _144  and  _145
REMARK   53  A    between atoms: _144  and  _147
REMARK   54  A    between atoms: _147  and  _148
REMARK   55  A    between atoms: _151  and  _153
REMARK   56  A    between atoms: _153  and  _154
REMARK   57  A    between atoms: _153  and  _156
REMARK   58  A    between atoms: _159  and  _161
REMARK   59  A    between atoms: _161  and  _162
REMARK   60  A    between atoms: _161  and  _164
REMARK   61  A    between atoms: _167  and  _169
REMARK   62  A    between atoms: _169  and  _170
REMARK   63  A    between atoms: _173  and  _175
REMARK   64  A    between atoms: _175  and  _176
REMARK   65  A    between atoms: _175  and  _178
REMARK   66  A    between atoms: _178  and  _179
REMARK   67  A    between atoms: _183  and  ZN_399
REMARK   68  A    between atoms: _184  and  _186
REMARK   69  A    between atoms: _186  and  _187
REMARK   70  A    between atoms: _186  and  _189
REMARK   71  A    between atoms: _189  and  _190
REMARK   72  A    between atoms: _190  and  _191
REMARK   73  A    between atoms: _194  and  _196
REMARK   74  A    between atoms: _196  and  _197
REMARK   75  A    between atoms: _196  and  _199
REMARK   76  A    between atoms: _199  and  _200
REMARK   77  A    between atoms: _203  and  _205
REMARK   78  A    between atoms: _205  and  _206
REMARK   79  A    between atoms: _205  and  _208
REMARK   80  A    between atoms: _208  and  _209
REMARK   81  A    between atoms: _213  and  ZN_399
REMARK   82  A    between atoms: _214  and  _216
REMARK   83  A    between atoms: _216  and  _217
REMARK   84  A    between atoms: _216  and  _219
REMARK   85  A    between atoms: _219  and  _220
REMARK   86  A    between atoms: _225  and  _226
REMARK   87  A    between atoms: _228  and  _230
REMARK   88  A    between atoms: _230  and  _231
REMARK   89  A    between atoms: _233  and  _235
REMARK   90  A    between atoms: _235  and  _236
REMARK   91  A    between atoms: _235  and  _238
REMARK   92  A    between atoms: _238  and  _239
REMARK   93  A    between atoms: _244  and  _246
REMARK   94  A    between atoms: _246  and  _247
REMARK   95  A    between atoms: _246  and  _249
REMARK   96  A    between atoms: _249  and  _250
REMARK   97  A    between atoms: _250  and  _251
REMARK   98  A    between atoms: _251  and  _252
REMARK   99  A    between atoms: _252  and  ZN_399
REMARK  100  A    between atoms: _254  and  _256
REMARK  101  A    between atoms: _256  and  _257
REMARK  102  A    between atoms: _256  and  _259
REMARK  103  A    between atoms: _259  and  _260
REMARK  104  A    between atoms: _262  and  _264
REMARK  105  A    between atoms: _264  and  _265
REMARK  106  A    between atoms: _264  and  _267
REMARK  107  A    between atoms: _267  and  _268
REMARK  108  A    between atoms: _271  and  _273
REMARK  109  A    between atoms: _273  and  _274
REMARK  110  A    between atoms: _273  and  _276
REMARK  111  A    between atoms: _276  and  _277
REMARK  112  A    between atoms: _280  and  _282
REMARK  113  A    between atoms: _282  and  _283
REMARK  114  A    between atoms: _285  and  _287
REMARK  115  A    between atoms: _287  and  _288
REMARK  116  A    between atoms: _287  and  _290
REMARK  117  A    between atoms: _290  and  _291
REMARK  118  A    between atoms: _291  and  _292
REMARK  119  A    between atoms: _295  and  _297
REMARK  120  A    between atoms: _297  and  _298
REMARK  121  A    between atoms: _297  and  _300
REMARK  122  A    between atoms: _303  and  _305
REMARK  123  A    between atoms: _305  and  _306
REMARK  124  A    between atoms: _305  and  _308
REMARK  125  A    between atoms: _308  and  _309
REMARK  126  A    between atoms: _314  and  _315
REMARK  127  A    between atoms: _317  and  _319
REMARK  128  A    between atoms: _319  and  _320
REMARK  129  A    between atoms: _319  and  _322
REMARK  130  A    between atoms: _322  and  _323
REMARK  131  A    between atoms: _326  and  _328
REMARK  132  A    between atoms: _328  and  _329
REMARK  133  A    between atoms: _328  and  _331
REMARK  134  A    between atoms: _331  and  _332
REMARK  135  A    between atoms: _332  and  _333
REMARK  136  A    between atoms: _333  and  _334
REMARK  137  A    between atoms: _343  and  _345
REMARK  138  A    between atoms: _345  and  _346
REMARK  139  A    between atoms: _345  and  _348
REMARK  140  A    between atoms: _348  and  _349
REMARK  141  A    between atoms: _352  and  _354
REMARK  142  A    between atoms: _354  and  _355
REMARK  143  A    between atoms: _354  and  _357
REMARK  144  A    between atoms: _357  and  _358
REMARK  145  A    between atoms: _363  and  _365
REMARK  146  A    between atoms: _365  and  _366
REMARK  147  A    between atoms: _365  and  _368
REMARK  148  A    between atoms: _371  and  _373
REMARK  149  A    between atoms: _373  and  _374
REMARK  150  A    between atoms: _373  and  _376
REMARK  151  A    between atoms: _376  and  _377
REMARK  152  A    between atoms: _382  and  _384
REMARK  153  A    between atoms: _384  and  _385
REMARK  154  A    between atoms: _384  and  _387
REMARK  155  A    between atoms: _387  and  _388
REMARK  156  A    between atoms: _391  and  _393
REMARK  157  A    between atoms: _393  and  _394
REMARK  158  A    between atoms: _393  and  _396
REMARK  159  A    between atoms: _396  and  _397
REMARK                            x       y       z     vdW  Elec       q    Type
REMARK                         _______ _______ _______ _____ _____    ______ ____
ROOT
ATOM      1  CA  GLY A   2      57.019  18.643   3.974  0.00  0.00    +0.176 C 
ENDROOT
BRANCH   1   3
ATOM      2  C   ILE A   1      59.150  18.401   2.718  0.00  0.00    +0.238 C 
ATOM      3  N   GLY A   2      58.262  19.176   3.368  0.00  0.00    -0.296 N 
ATOM      4  H   GLY A   2      58.457  20.194   3.449  0.00  0.00    +0.150 HD
ATOM      5  O   ILE A   1      59.080  17.147   2.630  0.00  0.00    -0.274 OA
BRANCH   2   6
ATOM      6  CA  ILE A   1      60.259  19.136   1.941  0.00  0.00    +0.145 C 
BRANCH   6   7
ATOM      7  N   ILE A   1      61.618  18.776   2.382  0.00  0.00    -0.238 NA
ATOM      8  H   ILE A   1      61.912  17.783   2.284  0.00  0.00    +0.142 HD
ENDBRANCH   6   7
BRANCH   6   9
ATOM      9  CB  ILE A   1      60.089  18.860   0.418  0.00  0.00    +0.025 C 
ATOM     10  CG2 ILE A   1      58.681  19.239  -0.090  0.00  0.00    +0.002 C 
BRANCH   9  11
ATOM     11  CG1 ILE A   1      61.150  19.622  -0.409  0.00  0.00    +0.002 C 
ATOM     12  CD1 ILE A   1      60.925  21.147  -0.329  0.00  0.00    +0.000 C 
ENDBRANCH   9  11
ENDBRANCH   6   9
ENDBRANCH   2   6
ENDBRANCH   1   3
BRANCH   1  13
ATOM     13  C   GLY A   2      57.185  18.091   5.384  0.00  0.00    +0.243 C 
ATOM     14  N   GLU A   3      58.321  18.335   5.961  0.00  0.00    -0.298 N 
ATOM     15  H   GLU A   3      59.025  18.924   5.472  0.00  0.00    +0.150 HD
ATOM     16  O   GLY A   2      56.244  17.481   5.937  0.00  0.00    -0.273 OA
BRANCH  14  17
ATOM     17  CA  GLU A   3      58.630  17.802   7.278  0.00  0.00    +0.137 C 
BRANCH  17  18
ATOM     18  C   GLU A   3      57.678  18.184   8.406  0.00  0.00    +0.227 C 
ATOM     19  O   GLU A   3      57.559  17.405   9.392  0.00  0.00    -0.286 OA
ENDBRANCH  17  18
BRANCH  17  20
ATOM     20  CB  GLU A   3      60.115  18.000   7.712  0.00  0.00    +0.039 C 
BRANCH  20  21
ATOM     21  CG  GLU A   3      60.507  19.440   8.107  0.00  0.00    +0.116 C 
BRANCH  21  22
ATOM     22  CD  GLU A   3      60.555  20.345   6.879  0.00  0.00    +0.365 C 
ATOM     23  OE2 GLU A   3      60.433  21.582   7.046  0.00  0.00    -0.246 OA
ATOM     24  OE1 GLU A   3      60.638  19.880   5.711  0.00  0.00    -0.246 OA
ENDBRANCH  21  22
ENDBRANCH  20  21
ENDBRANCH  17  20
ENDBRANCH  14  17
ENDBRANCH   1  13
TORSDOF 11
REMARK  Name = ../refined-set-2016/1tmn/1tmn_pocket.pdb
REMARK  159 active torsions:
REMARK  status: ('A' for Active; 'I' for Inactive)
REMARK    1  A    between atoms: _1  and  _3
REMARK    2  A    between atoms: _3  and  _4
REMARK    3  A    between atoms: _3  and  _6
REMARK    4  A    between atoms: _6  and  _7
REMARK    5  A    between atoms: _12  and  _13
REMARK    6  A    between atoms: _15  and  _17
REMARK    7  A    between atoms: _17  and  _18
REMARK    8  A    between atoms: _17  and  _20
REMARK    9  A    between atoms: _20  and  _21
REMARK   10  A    between atoms: _26  and  _27
REMARK   11  A    between atoms: _29  and  _31
REMARK   12  A    between atoms: _31  and  _32
REMARK   13  A    between atoms: _31  and  _34
REMARK   14  A    between atoms: _34  and  _35
REMARK   15  A    between atoms: _40  and  _42
REMARK   16  A    between atoms: _42  and  _43
REMARK   17  A    between atoms: _42  and  _45
REMARK   18  A    between atoms: _45  and  _46
REMARK   19  A    between atoms: _51  and  _53
REMARK   20  A    between atoms: _53  and  _54
REMARK   21  A    between atoms: _57  and  _59
REMARK   22  A    between atoms: _59  and  _60
REMARK   23  A    between atoms: _59  and  _62
REMARK   24  A    between atoms: _62  and  _63
REMARK   25  A    between atoms: _69  and  _71
REMARK   26  A    between atoms: _71  and  _72
REMARK   27  A    between atoms: _71  and  _74
REMARK   28  A    between atoms: _74  and  _75
REMARK   29  A    between atoms: _85  and  _87
REMARK   30  A    between atoms: _87  and  _88
REMARK   31  A    between atoms: _87  and  _90
REMARK   32  A    between atoms: _93  and  _95
REMARK   33  A    between atoms: _95  and  _96
REMARK   34  A    between atoms: _95  and  _98
REMARK   35  A    between atoms: _98  and  _99
REMARK   36  A    between atoms: _104  and  _105
REMARK   37  A    between atoms: _107  and  _109
REMARK   38  A    between atoms: _109  and  _110
REMARK   39  A    between atoms: _109  and  _112
REMARK   40  A    between atoms: _112  and  _113
REMARK   41  A    between atoms: _116  and  _118
REMARK   42  A    between atoms: _118  and  _119
REMARK   43  A    between atoms: _118  and  _121
REMARK   44  A    between atoms: _121  and  _122
REMARK   45  A    between atoms: _128  and  _130
REMARK   46  A    between atoms: _130  and  _131
REMARK   47  A    between atoms: _130  and  _133
REMARK   48  A    between atoms: _133  and  _134
REMARK   49  A    between atoms: _137  and  _139
REMARK   50  A    between atoms: _139  and  _140
REMARK   51  A    between atoms: _142  and  _144
REMARK   52  A    between atoms: _144  and  _145
REMARK   53  A    between atoms: _144  and  _147
REMARK   54  A    between atoms: _147  and  _148
REMARK   55  A    between atoms: _151  and  _153
REMARK   56  A    between atoms: _153  and  _154
REMARK   57  A    between atoms: _153  and  _156
REMARK   58  A    between atoms: _159  and  _161
REMARK   59  A    between atoms: _161  and  _162
REMARK   60  A    between atoms: _161  and  _164
REMARK   61  A    between atoms: _167  and  _169
REMARK   62  A    between atoms: _169  and  _170
REMARK   63  A    between atoms: _173  and  _175
REMARK   64  A    between atoms: _175  and  _176
REMARK   65  A    between atoms: _175  and  _178
REMARK   66  A    between atoms: _178  and  _179
REMARK   67  A    between atoms: _183  and  ZN_399
REMARK   68  A    between atoms: _184  and  _186
REMARK   69  A    between atoms: _186  and  _187
REMARK   70  A    between atoms: _186  and  _189
REMARK   71  A    between atoms: _189  and  _190
REMARK   72  A    between atoms: _190  and  _191
REMARK   73  A    between atoms: _194  and  _196
REMARK   74  A    between atoms: _196  and  _197
REMARK   75  A    between atoms: _196  and  _199
REMARK   76  A    between atoms: _199  and  _200
REMARK   77  A    between atoms: _203  and  _205
REMARK   78  A    between atoms: _205  and  _206
REMARK   79  A    between atoms: _205  and  _208
REMARK   80  A    between atoms: _208  and  _209
REMARK   81  A    between atoms: _213  and  ZN_399
REMARK   82  A    between atoms: _214  and  _216
REMARK   83  A    between atoms: _216  and  _217
REMARK   84  A    between atoms: _216  and  _219
REMARK   85  A    between atoms: _219  and  _220
REMARK   86  A    between atoms: _225  and  _226
REMARK   87  A    between atoms: _228  and  _230
REMARK   88  A    between atoms: _230  and  _231
REMARK   89  A    between atoms: _233  and  _235
REMARK   90  A    between atoms: _235  and  _236
REMARK   91  A    between atoms: _235  and  _238
REMARK   92  A    between atoms: _238  and  _239
REMARK   93  A    between atoms: _244  and  _246
REMARK   94  A    between atoms: _246  and  _247
REMARK   95  A    between atoms: _246  and  _249
REMARK   96  A    between atoms: _249  and  _250
REMARK   97  A    between atoms: _250  and  _251
REMARK   98  A    between atoms: _251  and  _252
REMARK   99  A    between atoms: _252  and  ZN_399
REMARK  100  A    between atoms: _254  and  _256
REMARK  101  A    between atoms: _256  and  _257
REMARK  102  A    between atoms: _256  and  _259
REMARK  103  A    between atoms: _259  and  _260
REMARK  104  A    between atoms: _262  and  _264
REMARK  105  A    between atoms: _264  and  _265
REMARK  106  A    between atoms: _264  and  _267
REMARK  107  A    between atoms: _267  and  _268
REMARK  108  A    between atoms: _271  and  _273
REMARK  109  A    between atoms: _273  and  _274
REMARK  110  A    between atoms: _273  and  _276
REMARK  111  A    between atoms: _276  and  _277
REMARK  112  A    between atoms: _280  and  _282
REMARK  113  A    between atoms: _282  and  _283
REMARK  114  A    between atoms: _285  and  _287
REMARK  115  A    between atoms: _287  and  _288
REMARK  116  A    between atoms: _287  and  _290
REMARK  117  A    between atoms: _290  and  _291
REMARK  118  A    between atoms: _291  and  _292
REMARK  119  A    between atoms: _295  and  _297
REMARK  120  A    between atoms: _297  and  _298
REMARK  121  A    between atoms: _297  and  _300
REMARK  122  A    between atoms: _303  and  _305
REMARK  123  A    between atoms: _305  and  _306
REMARK  124  A    between atoms: _305  and  _308
REMARK  125  A    between atoms: _308  and  _309
REMARK  126  A    between atoms: _314  and  _315
REMARK  127  A    between atoms: _317  and  _319
REMARK  128  A    between atoms: _319  and  _320
REMARK  129  A    between atoms: _319  and  _322
REMARK  130  A    between atoms: _322  and  _323
REMARK  131  A    between atoms: _326  and  _328
REMARK  132  A    between atoms: _328  and  _329
REMARK  133  A    between atoms: _328  and  _331
REMARK  134  A    between atoms: _331  and  _332
REMARK  135  A    between atoms: _332  and  _333
REMARK  136  A    between atoms: _333  and  _334
REMARK  137  A    between atoms: _343  and  _345
REMARK  138  A    between atoms: _345  and  _346
REMARK  139  A    between atoms: _345  and  _348
REMARK  140  A    between atoms: _348  and  _349
REMARK  141  A    between atoms: _352  and  _354
REMARK  142  A    between atoms: _354  and  _355
REMARK  143  A    between atoms: _354  and  _357
REMARK  144  A    between atoms: _357  and  _358
REMARK  145  A    between atoms: _363  and  _365
REMARK  146  A    between atoms: _365  and  _366
REMARK  147  A    between atoms: _365  and  _368
REMARK  148  A    between atoms: _371  and  _373
REMARK  149  A    between atoms: _373  and  _374
REMARK  150  A    between atoms: _373  and  _376
REMARK  151  A    between atoms: _376  and  _377
REMARK  152  A    between atoms: _382  and  _384
REMARK  153  A    between atoms: _384  and  _385
REMARK  154  A    between atoms: _384  and  _387
REMARK  155  A    between atoms: _387  and  _388
REMARK  156  A    between atoms: _391  and  _393
REMARK  157  A    between atoms: _393  and  _394
REMARK  158  A    between atoms: _393  and  _396
REMARK  159  A    between atoms: _396  and  _397
REMARK                            x       y       z     vdW  Elec       q    Type
REMARK                         _______ _______ _______ _____ _____    ______ ____
ROOT
ATOM      1  CA  TYR A   2      54.407  14.556   7.098  0.00  0.00    +0.141 C 
ENDROOT
BRANCH   1   4
ATOM      2  C   VAL A   1      53.216  16.548   7.860  0.00  0.00    +0.238 C 
ATOM      3  O   VAL A   1      52.113  15.950   7.874  0.00  0.00    -0.274 OA
ATOM      4  N   TYR A   2      54.358  15.977   7.504  0.00  0.00    -0.298 N 
ATOM      5  H   TYR A   2      55.234  16.538   7.510  0.00  0.00    +0.150 HD
BRANCH   2   6
ATOM      6  CA  VAL A   1      53.200  18.050   8.106  0.00  0.00    +0.145 C 
BRANCH   6   7
ATOM      7  CB  VAL A   1      52.354  18.771   7.032  0.00  0.00    +0.025 C 
ATOM      8  CG2 VAL A   1      51.990  20.183   7.476  0.00  0.00    +0.002 C 
ATOM      9  CG1 VAL A   1      52.955  18.793   5.626  0.00  0.00    +0.002 C 
ENDBRANCH   6   7
BRANCH   6  10
ATOM     10  N   VAL A   1      54.514  18.671   8.316  0.00  0.00    -0.238 NA
ATOM     11  H   VAL A   1      55.170  18.736   7.512  0.00  0.00    +0.142 HD
ENDBRANCH   6  10
ENDBRANCH   2   6
ENDBRANCH   1   4
BRANCH   1  12
ATOM     12  C   TYR A   2      54.636  13.634   8.294  0.00  0.00    +0.227 C 
ATOM     13  O   TYR A   2      55.383  14.054   9.216  0.00  0.00    -0.286 OA
ENDBRANCH   1  12
BRANCH   1  14
ATOM     14  CB  TYR A   2      55.571  14.418   6.143  0.00  0.00    +0.054 C 
BRANCH  14  15
ATOM     15  CG  TYR A   2      55.740  13.049   5.480  0.00  0.00    -0.020 A 
ATOM     16  CD2 TYR A   2      56.944  12.380   5.581  0.00  0.00    -0.001 A 
ATOM     17  CE2 TYR A   2      57.094  11.137   4.978  0.00  0.00    +0.036 A 
ATOM     18  CZ  TYR A   2      56.039  10.584   4.284  0.00  0.00    +0.134 A 
ATOM     19  CE1 TYR A   2      54.841  11.257   4.187  0.00  0.00    +0.036 A 
ATOM     20  CD1 TYR A   2      54.697  12.496   4.790  0.00  0.00    -0.001 A 
BRANCH  18  21
ATOM     21  OH  TYR A   2      56.173   9.307   3.659  0.00  0.00    -0.506 OA
ATOM     22  HH  TYR A   2      56.902   9.343   2.990  0.00  0.00    +0.292 HD
ENDBRANCH  18  21
ENDBRANCH  14  15
ENDBRANCH   1  14
TORSDOF 8
REMARK  Name = ../refined-set-2016/1tmn/1tmn_pocket.pdb
REMARK  159 active torsions:
REMARK  status: ('A' for Active; 'I' for Inactive)
REMARK    1  A    between atoms: _1  and  _3
REMARK    2  A    between atoms: _3  and  _4
REMARK    3  A    between atoms: _3  and  _6
REMARK    4  A    between atoms: _6  and  _7
REMARK    5  A    between atoms: _12  and  _13
REMARK    6  A    between atoms: _15  and  _17
REMARK    7  A    between atoms: _17  and  _18
REMARK    8  A    between atoms: _17  and  _20
REMARK    9  A    between atoms: _20  and  _21
REMARK   10  A    between atoms: _26  and  _27
REMARK   11  A    between atoms: _29  and  _31
REMARK   12  A    between atoms: _31  and  _32
REMARK   13  A    between atoms: _31  and  _34
REMARK   14  A    between atoms: _34  and  _35
REMARK   15  A    between atoms: _40  and  _42
REMARK   16  A    between atoms: _42  and  _43
REMARK   17  A    between atoms: _42  and  _45
REMARK   18  A    between atoms: _45  and  _46
REMARK   19  A    between atoms: _51  and  _53
REMARK   20  A    between atoms: _53  and  _54
REMARK   21  A    between atoms: _57  and  _59
REMARK   22  A    between atoms: _59  and  _60
REMARK   23  A    between atoms: _59  and  _62
REMARK   24  A    between atoms: _62  and  _63
REMARK   25  A    between atoms: _69  and  _71
REMARK   26  A    between atoms: _71  and  _72
REMARK   27  A    between atoms: _71  and  _74
REMARK   28  A    between atoms: _74  and  _75
REMARK   29  A    between atoms: _85  and  _87
REMARK   30  A    between atoms: _87  and  _88
REMARK   31  A    between atoms: _87  and  _90
REMARK   32  A    between atoms: _93  and  _95
REMARK   33  A    between atoms: _95  and  _96
REMARK   34  A    between atoms: _95  and  _98
REMARK   35  A    between atoms: _98  and  _99
REMARK   36  A    between atoms: _104  and  _105
REMARK   37  A    between atoms: _107  and  _109
REMARK   38  A    between atoms: _109  and  _110
REMARK   39  A    between atoms: _109  and  _112
REMARK   40  A    between atoms: _112  and  _113
REMARK   41  A    between atoms: _116  and  _118
REMARK   42  A    between atoms: _118  and  _119
REMARK   43  A    between atoms: _118  and  _121
REMARK   44  A    between atoms: _121  and  _122
REMARK   45  A    between atoms: _128  and  _130
REMARK   46  A    between atoms: _130  and  _131
REMARK   47  A    between atoms: _130  and  _133
REMARK   48  A    between atoms: _133  and  _134
REMARK   49  A    between atoms: _137  and  _139
REMARK   50  A    between atoms: _139  and  _140
REMARK   51  A    between atoms: _142  and  _144
REMARK   52  A    between atoms: _144  and  _145
REMARK   53  A    between atoms: _144  and  _147
REMARK   54  A    between atoms: _147  and  _148
REMARK   55  A    between atoms: _151  and  _153
REMARK   56  A    between atoms: _153  and  _154
REMARK   57  A    between atoms: _153  and  _156
REMARK   58  A    between atoms: _159  and  _161
REMARK   59  A    between atoms: _161  and  _162
REMARK   60  A    between atoms: _161  and  _164
REMARK   61  A    between atoms: _167  and  _169
REMARK   62  A    between atoms: _169  and  _170
REMARK   63  A    between atoms: _173  and  _175
REMARK   64  A    between atoms: _175  and  _176
REMARK   65  A    between atoms: _175  and  _178
REMARK   66  A    between atoms: _178  and  _179
REMARK   67  A    between atoms: _183  and  ZN_399
REMARK   68  A    between atoms: _184  and  _186
REMARK   69  A    between atoms: _186  and  _187
REMARK   70  A    between atoms: _186  and  _189
REMARK   71  A    between atoms: _189  and  _190
REMARK   72  A    between atoms: _190  and  _191
REMARK   73  A    between atoms: _194  and  _196
REMARK   74  A    between atoms: _196  and  _197
REMARK   75  A    between atoms: _196  and  _199
REMARK   76  A    between atoms: _199  and  _200
REMARK   77  A    between atoms: _203  and  _205
REMARK   78  A    between atoms: _205  and  _206
REMARK   79  A    between atoms: _205  and  _208
REMARK   80  A    between atoms: _208  and  _209
REMARK   81  A    between atoms: _213  and  ZN_399
REMARK   82  A    between atoms: _214  and  _216
REMARK   83  A    between atoms: _216  and  _217
REMARK   84  A    between atoms: _216  and  _219
REMARK   85  A    between atoms: _219  and  _220
REMARK   86  A    between atoms: _225  and  _226
REMARK   87  A    between atoms: _228  and  _230
REMARK   88  A    between atoms: _230  and  _231
REMARK   89  A    between atoms: _233  and  _235
REMARK   90  A    between atoms: _235  and  _236
REMARK   91  A    between atoms: _235  and  _238
REMARK   92  A    between atoms: _238  and  _239
REMARK   93  A    between atoms: _244  and  _246
REMARK   94  A    between atoms: _246  and  _247
REMARK   95  A    between atoms: _246  and  _249
REMARK   96  A    between atoms: _249  and  _250
REMARK   97  A    between atoms: _250  and  _251
REMARK   98  A    between atoms: _251  and  _252
REMARK   99  A    between atoms: _252  and  ZN_399
REMARK  100  A    between atoms: _254  and  _256
REMARK  101  A    between atoms: _256  and  _257
REMARK  102  A    between atoms: _256  and  _259
REMARK  103  A    between atoms: _259  and  _260
REMARK  104  A    between atoms: _262  and  _264
REMARK  105  A    between atoms: _264  and  _265
REMARK  106  A    between atoms: _264  and  _267
REMARK  107  A    between atoms: _267  and  _268
REMARK  108  A    between atoms: _271  and  _273
REMARK  109  A    between atoms: _273  and  _274
REMARK  110  A    between atoms: _273  and  _276
REMARK  111  A    between atoms: _276  and  _277
REMARK  112  A    between atoms: _280  and  _282
REMARK  113  A    between atoms: _282  and  _283
REMARK  114  A    between atoms: _285  and  _287
REMARK  115  A    between atoms: _287  and  _288
REMARK  116  A    between atoms: _287  and  _290
REMARK  117  A    between atoms: _290  and  _291
REMARK  118  A    between atoms: _291  and  _292
REMARK  119  A    between atoms: _295  and  _297
REMARK  120  A    between atoms: _297  and  _298
REMARK  121  A    between atoms: _297  and  _300
REMARK  122  A    between atoms: _303  and  _305
REMARK  123  A    between atoms: _305  and  _306
REMARK  124  A    between atoms: _305  and  _308
REMARK  125  A    between atoms: _308  and  _309
REMARK  126  A    between atoms: _314  and  _315
REMARK  127  A    between atoms: _317  and  _319
REMARK  128  A    between atoms: _319  and  _320
REMARK  129  A    between atoms: _319  and  _322
REMARK  130  A    between atoms: _322  and  _323
REMARK  131  A    between atoms: _326  and  _328
REMARK  132  A    between atoms: _328  and  _329
REMARK  133  A    between atoms: _328  and  _331
REMARK  134  A    between atoms: _331  and  _332
REMARK  135  A    between atoms: _332  and  _333
REMARK  136  A    between atoms: _333  and  _334
REMARK  137  A    between atoms: _343  and  _345
REMARK  138  A    between atoms: _345  and  _346
REMARK  139  A    between atoms: _345  and  _348
REMARK  140  A    between atoms: _348  and  _349
REMARK  141  A    between atoms: _352  and  _354
REMARK  142  A    between atoms: _354  and  _355
REMARK  143  A    between atoms: _354  and  _357
REMARK  144  A    between atoms: _357  and  _358
REMARK  145  A    between atoms: _363  and  _365
REMARK  146  A    between atoms: _365  and  _366
REMARK  147  A    between atoms: _365  and  _368
REMARK  148  A    between atoms: _371  and  _373
REMARK  149  A    between atoms: _373  and  _374
REMARK  150  A    between atoms: _373  and  _376
REMARK  151  A    between atoms: _376  and  _377
REMARK  152  A    between atoms: _382  and  _384
REMARK  153  A    between atoms: _384  and  _385
REMARK  154  A    between atoms: _384  and  _387
REMARK  155  A    between atoms: _387  and  _388
REMARK  156  A    between atoms: _391  and  _393
REMARK  157  A    between atoms: _393  and  _394
REMARK  158  A    between atoms: _393  and  _396
REMARK  159  A    between atoms: _396  and  _397
REMARK                            x       y       z     vdW  Elec       q    Type
REMARK                         _______ _______ _______ _____ _____    ______ ____
ROOT
ATOM      1  CA  ARG A   2      61.856  14.552  -0.111  0.00  0.00    +0.137 C 
ENDROOT
BRANCH   1   3
ATOM      2  C   LEU A   1      59.923  13.520   0.912  0.00  0.00    +0.238 C 
ATOM      3  N   ARG A   2      60.802  14.490   0.889  0.00  0.00    -0.298 N 
ATOM      4  H   ARG A   2      60.745  15.239   1.608  0.00  0.00    +0.150 HD
ATOM      5  O   LEU A   1      59.847  12.688  -0.029  0.00  0.00    -0.274 OA
BRANCH   2   6
ATOM      6  CA  LEU A   1      58.774  13.704   1.907  0.00  0.00    +0.145 C 
BRANCH   6   7
ATOM      7  N   LEU A   1      59.207  14.264   3.182  0.00  0.00    -0.238 NA
ATOM      8  H   LEU A   1      58.949  15.246   3.406  0.00  0.00    +0.142 HD
ENDBRANCH   6   7
BRANCH   6   9
ATOM      9  CB  LEU A   1      57.774  14.745   1.358  0.00  0.00    +0.026 C 
BRANCH   9  10
ATOM     10  CG  LEU A   1      56.654  14.212   0.495  0.00  0.00    +0.002 C 
ATOM     11  CD2 LEU A   1      56.009  12.944   1.080  0.00  0.00    +0.000 C 
ATOM     12  CD1 LEU A   1      55.557  15.293   0.416  0.00  0.00    +0.000 C 
ENDBRANCH   9  10
ENDBRANCH   6   9
ENDBRANCH   2   6
ENDBRANCH   1   3
BRANCH   1  13
ATOM     13  C   ARG A   2      62.996  15.334   0.529  0.00  0.00    +0.227 C 
ATOM     14  O   ARG A   2      62.725  16.167   1.431  0.00  0.00    -0.286 OA
ENDBRANCH   1  13
BRANCH   1  15
ATOM     15  CB  ARG A   2      61.441  15.369  -1.340  0.00  0.00    +0.031 C 
BRANCH  15  16
ATOM     16  CG  ARG A   2      60.656  14.608  -2.402  0.00  0.00    +0.045 C 
BRANCH  16  17
ATOM     17  CD  ARG A   2      60.497  15.440  -3.700  0.00  0.00    +0.174 C 
BRANCH  17  18
ATOM     18  NE  ARG A   2      59.629  16.620  -3.526  0.00  0.00    -0.265 N 
ATOM     19  HE  ARG A   2      60.118  17.525  -3.374  0.00  0.00    +0.259 HD
ATOM     20  CZ  ARG A   2      58.276  16.675  -3.539  0.00  0.00    +0.342 C 
ATOM     21  NH2 ARG A   2      57.663  17.861  -3.591  0.00  0.00    -0.292 N 
ATOM     22 HH21 ARG A   2      56.624  17.909  -3.601  0.00  0.00    +0.255 HD
ATOM     23 HH22 ARG A   2      58.225  18.736  -3.621  0.00  0.00    +0.255 HD
ATOM     24  NH1 ARG A   2      57.515  15.585  -3.631  0.00  0.00    -0.292 N 
ATOM     25 HH11 ARG A   2      56.479  15.673  -3.637  0.00  0.00    +0.255 HD
ATOM     26 HH12 ARG A   2      57.957  14.646  -3.696  0.00  0.00    +0.255 HD
ENDBRANCH  17  18
ENDBRANCH  16  17
ENDBRANCH  15  16
ENDBRANCH   1  15
TORSDOF 10
REMARK  Name = ../refined-set-2016/1tmn/1tmn_pocket.pdb
REMARK  159 active torsions:
REMARK  status: ('A' for Active; 'I' for Inactive)
REMARK    1  A    between atoms: _1  and  _3
REMARK    2  A    between atoms: _3  and  _4
REMARK    3  A    between atoms: _3  and  _6
REMARK    4  A    between atoms: _6  and  _7
REMARK    5  A    between atoms: _12  and  _13
REMARK    6  A    between atoms: _15  and  _17
REMARK    7  A    between atoms: _17  and  _18
REMARK    8  A    between atoms: _17  and  _20
REMARK    9  A    between atoms: _20  and  _21
REMARK   10  A    between atoms: _26  and  _27
REMARK   11  A    between atoms: _29  and  _31
REMARK   12  A    between atoms: _31  and  _32
REMARK   13  A    between atoms: _31  and  _34
REMARK   14  A    between atoms: _34  and  _35
REMARK   15  A    between atoms: _40  and  _42
REMARK   16  A    between atoms: _42  and  _43
REMARK   17  A    between atoms: _42  and  _45
REMARK   18  A    between atoms: _45  and  _46
REMARK   19  A    between atoms: _51  and  _53
REMARK   20  A    between atoms: _53  and  _54
REMARK   21  A    between atoms: _57  and  _59
REMARK   22  A    between atoms: _59  and  _60
REMARK   23  A    between atoms: _59  and  _62
REMARK   24  A    between atoms: _62  and  _63
REMARK   25  A    between atoms: _69  and  _71
REMARK   26  A    between atoms: _71  and  _72
REMARK   27  A    between atoms: _71  and  _74
REMARK   28  A    between atoms: _74  and  _75
REMARK   29  A    between atoms: _85  and  _87
REMARK   30  A    between atoms: _87  and  _88
REMARK   31  A    between atoms: _87  and  _90
REMARK   32  A    between atoms: _93  and  _95
REMARK   33  A    between atoms: _95  and  _96
REMARK   34  A    between atoms: _95  and  _98
REMARK   35  A    between atoms: _98  and  _99
REMARK   36  A    between atoms: _104  and  _105
REMARK   37  A    between atoms: _107  and  _109
REMARK   38  A    between atoms: _109  and  _110
REMARK   39  A    between atoms: _109  and  _112
REMARK   40  A    between atoms: _112  and  _113
REMARK   41  A    between atoms: _116  and  _118
REMARK   42  A    between atoms: _118  and  _119
REMARK   43  A    between atoms: _118  and  _121
REMARK   44  A    between atoms: _121  and  _122
REMARK   45  A    between atoms: _128  and  _130
REMARK   46  A    between atoms: _130  and  _131
REMARK   47  A    between atoms: _130  and  _133
REMARK   48  A    between atoms: _133  and  _134
REMARK   49  A    between atoms: _137  and  _139
REMARK   50  A    between atoms: _139  and  _140
REMARK   51  A    between atoms: _142  and  _144
REMARK   52  A    between atoms: _144  and  _145
REMARK   53  A    between atoms: _144  and  _147
REMARK   54  A    between atoms: _147  and  _148
REMARK   55  A    between atoms: _151  and  _153
REMARK   56  A    between atoms: _153  and  _154
REMARK   57  A    between atoms: _153  and  _156
REMARK   58  A    between atoms: _159  and  _161
REMARK   59  A    between atoms: _161  and  _162
REMARK   60  A    between atoms: _161  and  _164
REMARK   61  A    between atoms: _167  and  _169
REMARK   62  A    between atoms: _169  and  _170
REMARK   63  A    between atoms: _173  and  _175
REMARK   64  A    between atoms: _175  and  _176
REMARK   65  A    between atoms: _175  and  _178
REMARK   66  A    between atoms: _178  and  _179
REMARK   67  A    between atoms: _183  and  ZN_399
REMARK   68  A    between atoms: _184  and  _186
REMARK   69  A    between atoms: _186  and  _187
REMARK   70  A    between atoms: _186  and  _189
REMARK   71  A    between atoms: _189  and  _190
REMARK   72  A    between atoms: _190  and  _191
REMARK   73  A    between atoms: _194  and  _196
REMARK   74  A    between atoms: _196  and  _197
REMARK   75  A    between atoms: _196  and  _199
REMARK   76  A    between atoms: _199  and  _200
REMARK   77  A    between atoms: _203  and  _205
REMARK   78  A    between atoms: _205  and  _206
REMARK   79  A    between atoms: _205  and  _208
REMARK   80  A    between atoms: _208  and  _209
REMARK   81  A    between atoms: _213  and  ZN_399
REMARK   82  A    between atoms: _214  and  _216
REMARK   83  A    between atoms: _216  and  _217
REMARK   84  A    between atoms: _216  and  _219
REMARK   85  A    between atoms: _219  and  _220
REMARK   86  A    between atoms: _225  and  _226
REMARK   87  A    between atoms: _228  and  _230
REMARK   88  A    between atoms: _230  and  _231
REMARK   89  A    between atoms: _233  and  _235
REMARK   90  A    between atoms: _235  and  _236
REMARK   91  A    between atoms: _235  and  _238
REMARK   92  A    between atoms: _238  and  _239
REMARK   93  A    between atoms: _244  and  _246
REMARK   94  A    between atoms: _246  and  _247
REMARK   95  A    between atoms: _246  and  _249
REMARK   96  A    between atoms: _249  and  _250
REMARK   97  A    between atoms: _250  and  _251
REMARK   98  A    between atoms: _251  and  _252
REMARK   99  A    between atoms: _252  and  ZN_399
REMARK  100  A    between atoms: _254  and  _256
REMARK  101  A    between atoms: _256  and  _257
REMARK  102  A    between atoms: _256  and  _259
REMARK  103  A    between atoms: _259  and  _260
REMARK  104  A    between atoms: _262  and  _264
REMARK  105  A    between atoms: _264  and  _265
REMARK  106  A    between atoms: _264  and  _267
REMARK  107  A    between atoms: _267  and  _268
REMARK  108  A    between atoms: _271  and  _273
REMARK  109  A    between atoms: _273  and  _274
REMARK  110  A    between atoms: _273  and  _276
REMARK  111  A    between atoms: _276  and  _277
REMARK  112  A    between atoms: _280  and  _282
REMARK  113  A    between atoms: _282  and  _283
REMARK  114  A    between atoms: _285  and  _287
REMARK  115  A    between atoms: _287  and  _288
REMARK  116  A    between atoms: _287  and  _290
REMARK  117  A    between atoms: _290  and  _291
REMARK  118  A    between atoms: _291  and  _292
REMARK  119  A    between atoms: _295  and  _297
REMARK  120  A    between atoms: _297  and  _298
REMARK  121  A    between atoms: _297  and  _300
REMARK  122  A    between atoms: _303  and  _305
REMARK  123  A    between atoms: _305  and  _306
REMARK  124  A    between atoms: _305  and  _308
REMARK  125  A    between atoms: _308  and  _309
REMARK  126  A    between atoms: _314  and  _315
REMARK  127  A    between atoms: _317  and  _319
REMARK  128  A    between atoms: _319  and  _320
REMARK  129  A    between atoms: _319  and  _322
REMARK  130  A    between atoms: _322  and  _323
REMARK  131  A    between atoms: _326  and  _328
REMARK  132  A    between atoms: _328  and  _329
REMARK  133  A    between atoms: _328  and  _331
REMARK  134  A    between atoms: _331  and  _332
REMARK  135  A    between atoms: _332  and  _333
REMARK  136  A    between atoms: _333  and  _334
REMARK  137  A    between atoms: _343  and  _345
REMARK  138  A    between atoms: _345  and  _346
REMARK  139  A    between atoms: _345  and  _348
REMARK  140  A    between atoms: _348  and  _349
REMARK  141  A    between atoms: _352  and  _354
REMARK  142  A    between atoms: _354  and  _355
REMARK  143  A    between atoms: _354  and  _357
REMARK  144  A    between atoms: _357  and  _358
REMARK  145  A    between atoms: _363  and  _365
REMARK  146  A    between atoms: _365  and  _366
REMARK  147  A    between atoms: _365  and  _368
REMARK  148  A    between atoms: _371  and  _373
REMARK  149  A    between atoms: _373  and  _374
REMARK  150  A    between atoms: _373  and  _376
REMARK  151  A    between atoms: _376  and  _377
REMARK  152  A    between atoms: _382  and  _384
REMARK  153  A    between atoms: _384  and  _385
REMARK  154  A    between atoms: _384  and  _387
REMARK  155  A    between atoms: _387  and  _388
REMARK  156  A    between atoms: _391  and  _393
REMARK  157  A    between atoms: _393  and  _394
REMARK  158  A    between atoms: _393  and  _396
REMARK  159  A    between atoms: _396  and  _397
REMARK                            x       y       z     vdW  Elec       q    Type
REMARK                         _______ _______ _______ _____ _____    ______ ____
ROOT
ATOM      1  C   ASP A   1      54.570  11.039 -13.077  0.00  0.00    +0.239 C 
ATOM      2  O   ASP A   1      55.550  11.810 -12.987  0.00  0.00    -0.274 OA
ATOM      3  N   ASN A   2      53.811  10.938 -14.132  0.00  0.00    -0.298 N 
ATOM      4  H   ASN A   2      52.992  10.301 -14.066  0.00  0.00    +0.150 HD
ENDROOT
BRANCH   1   5
ATOM      5  CA  ASP A   1      54.256  10.012 -12.002  0.00  0.00    +0.156 C 
BRANCH   5   6
ATOM      6  N   ASP A   1      54.018   8.670 -12.576  0.00  0.00    -0.238 NA
ATOM      7  H   ASP A   1      53.100   8.220 -12.385  0.00  0.00    +0.142 HD
ENDBRANCH   5   6
BRANCH   5   8
ATOM      8  CB  ASP A   1      55.379   9.902 -10.947  0.00  0.00    +0.140 C 
BRANCH   8   9
ATOM      9  CG  ASP A   1      55.621  11.252 -10.299  0.00  0.00    +0.367 C 
ATOM     10  OD2 ASP A   1      56.806  11.584 -10.010  0.00  0.00    -0.246 OA
ATOM     11  OD1 ASP A   1      54.677  12.081 -10.210  0.00  0.00    -0.246 OA
ENDBRANCH   8   9
ENDBRANCH   5   8
ENDBRANCH   1   5
BRANCH   3  12
ATOM     12  CA  ASN A   2      54.010  11.648 -15.415  0.00  0.00    +0.146 C 
BRANCH  12  13
ATOM     13  C   ASN A   2      55.458  11.604 -15.912  0.00  0.00    +0.227 C 
ATOM     14  O   ASN A   2      55.892  12.606 -16.549  0.00  0.00    -0.286 OA
ENDBRANCH  12  13
BRANCH  12  15
ATOM     15  CB  ASN A   2      53.575  13.146 -15.383  0.00  0.00    +0.112 C 
BRANCH  15  16
ATOM     16  CG  ASN A   2      52.069  13.289 -15.149  0.00  0.00    +0.222 C 
ATOM     17  OD1 ASN A   2      51.649  13.262 -13.977  0.00  0.00    -0.275 OA
ATOM     18  ND2 ASN A   2      51.253  13.071 -16.147  0.00  0.00    -0.329 N 
ATOM     19 HD21 ASN A   2      50.248  12.874 -15.964  0.00  0.00    +0.145 HD
ATOM     20 HD22 ASN A   2      51.609  13.095 -17.124  0.00  0.00    +0.145 HD
ENDBRANCH  15  16
ENDBRANCH  12  15
ENDBRANCH   3  12
TORSDOF 8
REMARK  Name = ../refined-set-2016/1tmn/1tmn_pocket.pdb
REMARK  159 active torsions:
REMARK  status: ('A' for Active; 'I' for Inactive)
REMARK    1  A    between atoms: _1  and  _3
REMARK    2  A    between atoms: _3  and  _4
REMARK    3  A    between atoms: _3  and  _6
REMARK    4  A    between atoms: _6  and  _7
REMARK    5  A    between atoms: _12  and  _13
REMARK    6  A    between atoms: _15  and  _17
REMARK    7  A    between atoms: _17  and  _18
REMARK    8  A    between atoms: _17  and  _20
REMARK    9  A    between atoms: _20  and  _21
REMARK   10  A    between atoms: _26  and  _27
REMARK   11  A    between atoms: _29  and  _31
REMARK   12  A    between atoms: _31  and  _32
REMARK   13  A    between atoms: _31  and  _34
REMARK   14  A    between atoms: _34  and  _35
REMARK   15  A    between atoms: _40  and  _42
REMARK   16  A    between atoms: _42  and  _43
REMARK   17  A    between atoms: _42  and  _45
REMARK   18  A    between atoms: _45  and  _46
REMARK   19  A    between atoms: _51  and  _53
REMARK   20  A    between atoms: _53  and  _54
REMARK   21  A    between atoms: _57  and  _59
REMARK   22  A    between atoms: _59  and  _60
REMARK   23  A    between atoms: _59  and  _62
REMARK   24  A    between atoms: _62  and  _63
REMARK   25  A    between atoms: _69  and  _71
REMARK   26  A    between atoms: _71  and  _72
REMARK   27  A    between atoms: _71  and  _74
REMARK   28  A    between atoms: _74  and  _75
REMARK   29  A    between atoms: _85  and  _87
REMARK   30  A    between atoms: _87  and  _88
REMARK   31  A    between atoms: _87  and  _90
REMARK   32  A    between atoms: _93  and  _95
REMARK   33  A    between atoms: _95  and  _96
REMARK   34  A    between atoms: _95  and  _98
REMARK   35  A    between atoms: _98  and  _99
REMARK   36  A    between atoms: _104  and  _105
REMARK   37  A    between atoms: _107  and  _109
REMARK   38  A    between atoms: _109  and  _110
REMARK   39  A    between atoms: _109  and  _112
REMARK   40  A    between atoms: _112  and  _113
REMARK   41  A    between atoms: _116  and  _118
REMARK   42  A    between atoms: _118  and  _119
REMARK   43  A    between atoms: _118  and  _121
REMARK   44  A    between atoms: _121  and  _122
REMARK   45  A    between atoms: _128  and  _130
REMARK   46  A    between atoms: _130  and  _131
REMARK   47  A    between atoms: _130  and  _133
REMARK   48  A    between atoms: _133  and  _134
REMARK   49  A    between atoms: _137  and  _139
REMARK   50  A    between atoms: _139  and  _140
REMARK   51  A    between atoms: _142  and  _144
REMARK   52  A    between atoms: _144  and  _145
REMARK   53  A    between atoms: _144  and  _147
REMARK   54  A    between atoms: _147  and  _148
REMARK   55  A    between atoms: _151  and  _153
REMARK   56  A    between atoms: _153  and  _154
REMARK   57  A    between atoms: _153  and  _156
REMARK   58  A    between atoms: _159  and  _161
REMARK   59  A    between atoms: _161  and  _162
REMARK   60  A    between atoms: _161  and  _164
REMARK   61  A    between atoms: _167  and  _169
REMARK   62  A    between atoms: _169  and  _170
REMARK   63  A    between atoms: _173  and  _175
REMARK   64  A    between atoms: _175  and  _176
REMARK   65  A    between atoms: _175  and  _178
REMARK   66  A    between atoms: _178  and  _179
REMARK   67  A    between atoms: _183  and  ZN_399
REMARK   68  A    between atoms: _184  and  _186
REMARK   69  A    between atoms: _186  and  _187
REMARK   70  A    between atoms: _186  and  _189
REMARK   71  A    between atoms: _189  and  _190
REMARK   72  A    between atoms: _190  and  _191
REMARK   73  A    between atoms: _194  and  _196
REMARK   74  A    between atoms: _196  and  _197
REMARK   75  A    between atoms: _196  and  _199
REMARK   76  A    between atoms: _199  and  _200
REMARK   77  A    between atoms: _203  and  _205
REMARK   78  A    between atoms: _205  and  _206
REMARK   79  A    between atoms: _205  and  _208
REMARK   80  A    between atoms: _208  and  _209
REMARK   81  A    between atoms: _213  and  ZN_399
REMARK   82  A    between atoms: _214  and  _216
REMARK   83  A    between atoms: _216  and  _217
REMARK   84  A    between atoms: _216  and  _219
REMARK   85  A    between atoms: _219  and  _220
REMARK   86  A    between atoms: _225  and  _226
REMARK   87  A    between atoms: _228  and  _230
REMARK   88  A    between atoms: _230  and  _231
REMARK   89  A    between atoms: _233  and  _235
REMARK   90  A    between atoms: _235  and  _236
REMARK   91  A    between atoms: _235  and  _238
REMARK   92  A    between atoms: _238  and  _239
REMARK   93  A    between atoms: _244  and  _246
REMARK   94  A    between atoms: _246  and  _247
REMARK   95  A    between atoms: _246  and  _249
REMARK   96  A    between atoms: _249  and  _250
REMARK   97  A    between atoms: _250  and  _251
REMARK   98  A    between atoms: _251  and  _252
REMARK   99  A    between atoms: _252  and  ZN_399
REMARK  100  A    between atoms: _254  and  _256
REMARK  101  A    between atoms: _256  and  _257
REMARK  102  A    between atoms: _256  and  _259
REMARK  103  A    between atoms: _259  and  _260
REMARK  104  A    between atoms: _262  and  _264
REMARK  105  A    between atoms: _264  and  _265
REMARK  106  A    between atoms: _264  and  _267
REMARK  107  A    between atoms: _267  and  _268
REMARK  108  A    between atoms: _271  and  _273
REMARK  109  A    between atoms: _273  and  _274
REMARK  110  A    between atoms: _273  and  _276
REMARK  111  A    between atoms: _276  and  _277
REMARK  112  A    between atoms: _280  and  _282
REMARK  113  A    between atoms: _282  and  _283
REMARK  114  A    between atoms: _285  and  _287
REMARK  115  A    between atoms: _287  and  _288
REMARK  116  A    between atoms: _287  and  _290
REMARK  117  A    between atoms: _290  and  _291
REMARK  118  A    between atoms: _291  and  _292
REMARK  119  A    between atoms: _295  and  _297
REMARK  120  A    between atoms: _297  and  _298
REMARK  121  A    between atoms: _297  and  _300
REMARK  122  A    between atoms: _303  and  _305
REMARK  123  A    between atoms: _305  and  _306
REMARK  124  A    between atoms: _305  and  _308
REMARK  125  A    between atoms: _308  and  _309
REMARK  126  A    between atoms: _314  and  _315
REMARK  127  A    between atoms: _317  and  _319
REMARK  128  A    between atoms: _319  and  _320
REMARK  129  A    between atoms: _319  and  _322
REMARK  130  A    between atoms: _322  and  _323
REMARK  131  A    between atoms: _326  and  _328
REMARK  132  A    between atoms: _328  and  _329
REMARK  133  A    between atoms: _328  and  _331
REMARK  134  A    between atoms: _331  and  _332
REMARK  135  A    between atoms: _332  and  _333
REMARK  136  A    between atoms: _333  and  _334
REMARK  137  A    between atoms: _343  and  _345
REMARK  138  A    between atoms: _345  and  _346
REMARK  139  A    between atoms: _345  and  _348
REMARK  140  A    between atoms: _348  and  _349
REMARK  141  A    between atoms: _352  and  _354
REMARK  142  A    between atoms: _354  and  _355
REMARK  143  A    between atoms: _354  and  _357
REMARK  144  A    between atoms: _357  and  _358
REMARK  145  A    between atoms: _363  and  _365
REMARK  146  A    between atoms: _365  and  _366
REMARK  147  A    between atoms: _365  and  _368
REMARK  148  A    between atoms: _371  and  _373
REMARK  149  A    between atoms: _373  and  _374
REMARK  150  A    between atoms: _373  and  _376
REMARK  151  A    between atoms: _376  and  _377
REMARK  152  A    between atoms: _382  and  _384
REMARK  153  A    between atoms: _384  and  _385
REMARK  154  A    between atoms: _384  and  _387
REMARK  155  A    between atoms: _387  and  _388
REMARK  156  A    between atoms: _391  and  _393
REMARK  157  A    between atoms: _393  and  _394
REMARK  158  A    between atoms: _393  and  _396
REMARK  159  A    between atoms: _396  and  _397
REMARK                            x       y       z     vdW  Elec       q    Type
REMARK                         _______ _______ _______ _____ _____    ______ ____
ROOT
ATOM      1  CA  HIS A   2      58.453  14.033  -8.407  0.00  0.00    +0.155 C 
ENDROOT
BRANCH   1   3
ATOM      2  C   VAL A   1      58.553  14.749 -10.719  0.00  0.00    +0.238 C 
ATOM      3  N   HIS A   2      58.112  13.912  -9.824  0.00  0.00    -0.297 N 
ATOM      4  H   HIS A   2      57.496  13.131 -10.127  0.00  0.00    +0.150 HD
ATOM      5  O   VAL A   1      59.441  15.615 -10.492  0.00  0.00    -0.274 OA
BRANCH   2   6
ATOM      6  CA  VAL A   1      58.197  14.420 -12.161  0.00  0.00    +0.145 C 
BRANCH   6   7
ATOM      7  CB  VAL A   1      57.066  15.311 -12.738  0.00  0.00    +0.025 C 
ATOM      8  CG2 VAL A   1      55.785  15.184 -11.918  0.00  0.00    +0.002 C 
ATOM      9  CG1 VAL A   1      56.777  14.969 -14.204  0.00  0.00    +0.002 C 
ENDBRANCH   6   7
BRANCH   6  10
ATOM     10  N   VAL A   1      57.996  12.987 -12.426  0.00  0.00    -0.238 NA
ATOM     11  H   VAL A   1      57.043  12.632 -12.645  0.00  0.00    +0.142 HD
ENDBRANCH   6  10
ENDBRANCH   2   6
ENDBRANCH   1   3
BRANCH   1  12
ATOM     12  C   HIS A   2      59.662  13.200  -8.032  0.00  0.00    +0.241 C 
ATOM     13  O   HIS A   2      60.152  13.334  -6.882  0.00  0.00    -0.273 OA
ATOM     14  N   ILE A   3      60.143  12.465  -9.007  0.00  0.00    -0.298 N 
ATOM     15  H   ILE A   3      59.675  12.499  -9.935  0.00  0.00    +0.150 HD
BRANCH  14  16
ATOM     16  CA  ILE A   3      61.327  11.588  -8.839  0.00  0.00    +0.137 C 
BRANCH  16  17
ATOM     17  C   ILE A   3      62.591  12.237  -9.364  0.00  0.00    +0.227 C 
ATOM     18  O   ILE A   3      63.511  12.499  -8.559  0.00  0.00    -0.286 OA
ENDBRANCH  16  17
BRANCH  16  19
ATOM     19  CB  ILE A   3      61.149  10.214  -9.520  0.00  0.00    +0.026 C 
ATOM     20  CG2 ILE A   3      62.393   9.321  -9.322  0.00  0.00    +0.002 C 
BRANCH  19  21
ATOM     21  CG1 ILE A   3      59.851   9.535  -9.030  0.00  0.00    +0.002 C 
ATOM     22  CD1 ILE A   3      59.551   8.209  -9.716  0.00  0.00    +0.000 C 
ENDBRANCH  19  21
ENDBRANCH  16  19
ENDBRANCH  14  16
ENDBRANCH   1  12
BRANCH   1  23
ATOM     23  CB  HIS A   2      57.306  13.603  -7.445  0.00  0.00    +0.076 C 
BRANCH  23  24
ATOM     24  CG  HIS A   2      56.085  14.518  -7.633  0.00  0.00    +0.082 A 
ATOM     25  CD2 HIS A   2      55.839  15.709  -7.068  0.00  0.00    +0.115 A 
ATOM     26  NE2 HIS A   2      54.610  16.190  -7.537  0.00  0.00    -0.221 NA
ATOM     27  CE1 HIS A   2      54.075  15.227  -8.446  0.00  0.00    +0.199 A 
ATOM     28  ND1 HIS A   2      55.006  14.166  -8.510  0.00  0.00    -0.227 NA
ENDBRANCH  23  24
ENDBRANCH   1  23
TORSDOF 11
REMARK  Name = ../refined-set-2016/1tmn/1tmn_pocket.pdb
REMARK  159 active torsions:
REMARK  status: ('A' for Active; 'I' for Inactive)
REMARK    1  A    between atoms: _1  and  _3
REMARK    2  A    between atoms: _3  and  _4
REMARK    3  A    between atoms: _3  and  _6
REMARK    4  A    between atoms: _6  and  _7
REMARK    5  A    between atoms: _12  and  _13
REMARK    6  A    between atoms: _15  and  _17
REMARK    7  A    between atoms: _17  and  _18
REMARK    8  A    between atoms: _17  and  _20
REMARK    9  A    between atoms: _20  and  _21
REMARK   10  A    between atoms: _26  and  _27
REMARK   11  A    between atoms: _29  and  _31
REMARK   12  A    between atoms: _31  and  _32
REMARK   13  A    between atoms: _31  and  _34
REMARK   14  A    between atoms: _34  and  _35
REMARK   15  A    between atoms: _40  and  _42
REMARK   16  A    between atoms: _42  and  _43
REMARK   17  A    between atoms: _42  and  _45
REMARK   18  A    between atoms: _45  and  _46
REMARK   19  A    between atoms: _51  and  _53
REMARK   20  A    between atoms: _53  and  _54
REMARK   21  A    between atoms: _57  and  _59
REMARK   22  A    between atoms: _59  and  _60
REMARK   23  A    between atoms: _59  and  _62
REMARK   24  A    between atoms: _62  and  _63
REMARK   25  A    between atoms: _69  and  _71
REMARK   26  A    between atoms: _71  and  _72
REMARK   27  A    between atoms: _71  and  _74
REMARK   28  A    between atoms: _74  and  _75
REMARK   29  A    between atoms: _85  and  _87
REMARK   30  A    between atoms: _87  and  _88
REMARK   31  A    between atoms: _87  and  _90
REMARK   32  A    between atoms: _93  and  _95
REMARK   33  A    between atoms: _95  and  _96
REMARK   34  A    between atoms: _95  and  _98
REMARK   35  A    between atoms: _98  and  _99
REMARK   36  A    between atoms: _104  and  _105
REMARK   37  A    between atoms: _107  and  _109
REMARK   38  A    between atoms: _109  and  _110
REMARK   39  A    between atoms: _109  and  _112
REMARK   40  A    between atoms: _112  and  _113
REMARK   41  A    between atoms: _116  and  _118
REMARK   42  A    between atoms: _118  and  _119
REMARK   43  A    between atoms: _118  and  _121
REMARK   44  A    between atoms: _121  and  _122
REMARK   45  A    between atoms: _128  and  _130
REMARK   46  A    between atoms: _130  and  _131
REMARK   47  A    between atoms: _130  and  _133
REMARK   48  A    between atoms: _133  and  _134
REMARK   49  A    between atoms: _137  and  _139
REMARK   50  A    between atoms: _139  and  _140
REMARK   51  A    between atoms: _142  and  _144
REMARK   52  A    between atoms: _144  and  _145
REMARK   53  A    between atoms: _144  and  _147
REMARK   54  A    between atoms: _147  and  _148
REMARK   55  A    between atoms: _151  and  _153
REMARK   56  A    between atoms: _153  and  _154
REMARK   57  A    between atoms: _153  and  _156
REMARK   58  A    between atoms: _159  and  _161
REMARK   59  A    between atoms: _161  and  _162
REMARK   60  A    between atoms: _161  and  _164
REMARK   61  A    between atoms: _167  and  _169
REMARK   62  A    between atoms: _169  and  _170
REMARK   63  A    between atoms: _173  and  _175
REMARK   64  A    between atoms: _175  and  _176
REMARK   65  A    between atoms: _175  and  _178
REMARK   66  A    between atoms: _178  and  _179
REMARK   67  A    between atoms: _183  and  ZN_399
REMARK   68  A    between atoms: _184  and  _186
REMARK   69  A    between atoms: _186  and  _187
REMARK   70  A    between atoms: _186  and  _189
REMARK   71  A    between atoms: _189  and  _190
REMARK   72  A    between atoms: _190  and  _191
REMARK   73  A    between atoms: _194  and  _196
REMARK   74  A    between atoms: _196  and  _197
REMARK   75  A    between atoms: _196  and  _199
REMARK   76  A    between atoms: _199  and  _200
REMARK   77  A    between atoms: _203  and  _205
REMARK   78  A    between atoms: _205  and  _206
REMARK   79  A    between atoms: _205  and  _208
REMARK   80  A    between atoms: _208  and  _209
REMARK   81  A    between atoms: _213  and  ZN_399
REMARK   82  A    between atoms: _214  and  _216
REMARK   83  A    between atoms: _216  and  _217
REMARK   84  A    between atoms: _216  and  _219
REMARK   85  A    between atoms: _219  and  _220
REMARK   86  A    between atoms: _225  and  _226
REMARK   87  A    between atoms: _228  and  _230
REMARK   88  A    between atoms: _230  and  _231
REMARK   89  A    between atoms: _233  and  _235
REMARK   90  A    between atoms: _235  and  _236
REMARK   91  A    between atoms: _235  and  _238
REMARK   92  A    between atoms: _238  and  _239
REMARK   93  A    between atoms: _244  and  _246
REMARK   94  A    between atoms: _246  and  _247
REMARK   95  A    between atoms: _246  and  _249
REMARK   96  A    between atoms: _249  and  _250
REMARK   97  A    between atoms: _250  and  _251
REMARK   98  A    between atoms: _251  and  _252
REMARK   99  A    between atoms: _252  and  ZN_399
REMARK  100  A    between atoms: _254  and  _256
REMARK  101  A    between atoms: _256  and  _257
REMARK  102  A    between atoms: _256  and  _259
REMARK  103  A    between atoms: _259  and  _260
REMARK  104  A    between atoms: _262  and  _264
REMARK  105  A    between atoms: _264  and  _265
REMARK  106  A    between atoms: _264  and  _267
REMARK  107  A    between atoms: _267  and  _268
REMARK  108  A    between atoms: _271  and  _273
REMARK  109  A    between atoms: _273  and  _274
REMARK  110  A    between atoms: _273  and  _276
REMARK  111  A    between atoms: _276  and  _277
REMARK  112  A    between atoms: _280  and  _282
REMARK  113  A    between atoms: _282  and  _283
REMARK  114  A    between atoms: _285  and  _287
REMARK  115  A    between atoms: _287  and  _288
REMARK  116  A    between atoms: _287  and  _290
REMARK  117  A    between atoms: _290  and  _291
REMARK  118  A    between atoms: _291  and  _292
REMARK  119  A    between atoms: _295  and  _297
REMARK  120  A    between atoms: _297  and  _298
REMARK  121  A    between atoms: _297  and  _300
REMARK  122  A    between atoms: _303  and  _305
REMARK  123  A    between atoms: _305  and  _306
REMARK  124  A    between atoms: _305  and  _308
REMARK  125  A    between atoms: _308  and  _309
REMARK  126  A    between atoms: _314  and  _315
REMARK  127  A    between atoms: _317  and  _319
REMARK  128  A    between atoms: _319  and  _320
REMARK  129  A    between atoms: _319  and  _322
REMARK  130  A    between atoms: _322  and  _323
REMARK  131  A    between atoms: _326  and  _328
REMARK  132  A    between atoms: _328  and  _329
REMARK  133  A    between atoms: _328  and  _331
REMARK  134  A    between atoms: _331  and  _332
REMARK  135  A    between atoms: _332  and  _333
REMARK  136  A    between atoms: _333  and  _334
REMARK  137  A    between atoms: _343  and  _345
REMARK  138  A    between atoms: _345  and  _346
REMARK  139  A    between atoms: _345  and  _348
REMARK  140  A    between atoms: _348  and  _349
REMARK  141  A    between atoms: _352  and  _354
REMARK  142  A    between atoms: _354  and  _355
REMARK  143  A    between atoms: _354  and  _357
REMARK  144  A    between atoms: _357  and  _358
REMARK  145  A    between atoms: _363  and  _365
REMARK  146  A    between atoms: _365  and  _366
REMARK  147  A    between atoms: _365  and  _368
REMARK  148  A    between atoms: _371  and  _373
REMARK  149  A    between atoms: _373  and  _374
REMARK  150  A    between atoms: _373  and  _376
REMARK  151  A    between atoms: _376  and  _377
REMARK  152  A    between atoms: _382  and  _384
REMARK  153  A    between atoms: _384  and  _385
REMARK  154  A    between atoms: _384  and  _387
REMARK  155  A    between atoms: _387  and  _388
REMARK  156  A    between atoms: _391  and  _393
REMARK  157  A    between atoms: _393  and  _394
REMARK  158  A    between atoms: _393  and  _396
REMARK  159  A    between atoms: _396  and  _397
REMARK                            x       y       z     vdW  Elec       q    Type
REMARK                         _______ _______ _______ _____ _____    ______ ____
ROOT
ATOM      1  CA  SER A   1      63.428  16.569  -9.613  0.00  0.00    +0.163 C 
ENDROOT
BRANCH   1   2
ATOM      2  N   SER A   1      63.188  15.255 -10.199  0.00  0.00    -0.237 NA
ATOM      3  H   SER A   1      62.241  14.837 -10.099  0.00  0.00    +0.142 HD
ENDBRANCH   1   2
BRANCH   1   4
ATOM      4  C   SER A   1      64.475  16.477  -8.516  0.00  0.00    +0.227 C 
ATOM      5  O   SER A   1      65.190  17.472  -8.259  0.00  0.00    -0.287 OA
ENDBRANCH   1   4
BRANCH   1   6
ATOM      6  CB  SER A   1      62.168  17.113  -8.913  0.00  0.00    +0.162 C 
BRANCH   6   7
ATOM      7  OG  SER A   1      61.803  16.281  -7.815  0.00  0.00    -0.380 OA
ATOM      8  H   SER A   1      60.993  16.647  -7.380  0.00  0.00    +0.211 HD
ENDBRANCH   6   7
ENDBRANCH   1   6
TORSDOF 4
REMARK  Name = ../refined-set-2016/1tmn/1tmn_pocket.pdb
REMARK  159 active torsions:
REMARK  status: ('A' for Active; 'I' for Inactive)
REMARK    1  A    between atoms: _1  and  _3
REMARK    2  A    between atoms: _3  and  _4
REMARK    3  A    between atoms: _3  and  _6
REMARK    4  A    between atoms: _6  and  _7
REMARK    5  A    between atoms: _12  and  _13
REMARK    6  A    between atoms: _15  and  _17
REMARK    7  A    between atoms: _17  and  _18
REMARK    8  A    between atoms: _17  and  _20
REMARK    9  A    between atoms: _20  and  _21
REMARK   10  A    between atoms: _26  and  _27
REMARK   11  A    between atoms: _29  and  _31
REMARK   12  A    between atoms: _31  and  _32
REMARK   13  A    between atoms: _31  and  _34
REMARK   14  A    between atoms: _34  and  _35
REMARK   15  A    between atoms: _40  and  _42
REMARK   16  A    between atoms: _42  and  _43
REMARK   17  A    between atoms: _42  and  _45
REMARK   18  A    between atoms: _45  and  _46
REMARK   19  A    between atoms: _51  and  _53
REMARK   20  A    between atoms: _53  and  _54
REMARK   21  A    between atoms: _57  and  _59
REMARK   22  A    between atoms: _59  and  _60
REMARK   23  A    between atoms: _59  and  _62
REMARK   24  A    between atoms: _62  and  _63
REMARK   25  A    between atoms: _69  and  _71
REMARK   26  A    between atoms: _71  and  _72
REMARK   27  A    between atoms: _71  and  _74
REMARK   28  A    between atoms: _74  and  _75
REMARK   29  A    between atoms: _85  and  _87
REMARK   30  A    between atoms: _87  and  _88
REMARK   31  A    between atoms: _87  and  _90
REMARK   32  A    between atoms: _93  and  _95
REMARK   33  A    between atoms: _95  and  _96
REMARK   34  A    between atoms: _95  and  _98
REMARK   35  A    between atoms: _98  and  _99
REMARK   36  A    between atoms: _104  and  _105
REMARK   37  A    between atoms: _107  and  _109
REMARK   38  A    between atoms: _109  and  _110
REMARK   39  A    between atoms: _109  and  _112
REMARK   40  A    between atoms: _112  and  _113
REMARK   41  A    between atoms: _116  and  _118
REMARK   42  A    between atoms: _118  and  _119
REMARK   43  A    between atoms: _118  and  _121
REMARK   44  A    between atoms: _121  and  _122
REMARK   45  A    between atoms: _128  and  _130
REMARK   46  A    between atoms: _130  and  _131
REMARK   47  A    between atoms: _130  and  _133
REMARK   48  A    between atoms: _133  and  _134
REMARK   49  A    between atoms: _137  and  _139
REMARK   50  A    between atoms: _139  and  _140
REMARK   51  A    between atoms: _142  and  _144
REMARK   52  A    between atoms: _144  and  _145
REMARK   53  A    between atoms: _144  and  _147
REMARK   54  A    between atoms: _147  and  _148
REMARK   55  A    between atoms: _151  and  _153
REMARK   56  A    between atoms: _153  and  _154
REMARK   57  A    between atoms: _153  and  _156
REMARK   58  A    between atoms: _159  and  _161
REMARK   59  A    between atoms: _161  and  _162
REMARK   60  A    between atoms: _161  and  _164
REMARK   61  A    between atoms: _167  and  _169
REMARK   62  A    between atoms: _169  and  _170
REMARK   63  A    between atoms: _173  and  _175
REMARK   64  A    between atoms: _175  and  _176
REMARK   65  A    between atoms: _175  and  _178
REMARK   66  A    between atoms: _178  and  _179
REMARK   67  A    between atoms: _183  and  ZN_399
REMARK   68  A    between atoms: _184  and  _186
REMARK   69  A    between atoms: _186  and  _187
REMARK   70  A    between atoms: _186  and  _189
REMARK   71  A    between atoms: _189  and  _190
REMARK   72  A    between atoms: _190  and  _191
REMARK   73  A    between atoms: _194  and  _196
REMARK   74  A    between atoms: _196  and  _197
REMARK   75  A    between atoms: _196  and  _199
REMARK   76  A    between atoms: _199  and  _200
REMARK   77  A    between atoms: _203  and  _205
REMARK   78  A    between atoms: _205  and  _206
REMARK   79  A    between atoms: _205  and  _208
REMARK   80  A    between atoms: _208  and  _209
REMARK   81  A    between atoms: _213  and  ZN_399
REMARK   82  A    between atoms: _214  and  _216
REMARK   83  A    between atoms: _216  and  _217
REMARK   84  A    between atoms: _216  and  _219
REMARK   85  A    between atoms: _219  and  _220
REMARK   86  A    between atoms: _225  and  _226
REMARK   87  A    between atoms: _228  and  _230
REMARK   88  A    between atoms: _230  and  _231
REMARK   89  A    between atoms: _233  and  _235
REMARK   90  A    between atoms: _235  and  _236
REMARK   91  A    between atoms: _235  and  _238
REMARK   92  A    between atoms: _238  and  _239
REMARK   93  A    between atoms: _244  and  _246
REMARK   94  A    between atoms: _246  and  _247
REMARK   95  A    between atoms: _246  and  _249
REMARK   96  A    between atoms: _249  and  _250
REMARK   97  A    between atoms: _250  and  _251
REMARK   98  A    between atoms: _251  and  _252
REMARK   99  A    between atoms: _252  and  ZN_399
REMARK  100  A    between atoms: _254  and  _256
REMARK  101  A    between atoms: _256  and  _257
REMARK  102  A    between atoms: _256  and  _259
REMARK  103  A    between atoms: _259  and  _260
REMARK  104  A    between atoms: _262  and  _264
REMARK  105  A    between atoms: _264  and  _265
REMARK  106  A    between atoms: _264  and  _267
REMARK  107  A    between atoms: _267  and  _268
REMARK  108  A    between atoms: _271  and  _273
REMARK  109  A    between atoms: _273  and  _274
REMARK  110  A    between atoms: _273  and  _276
REMARK  111  A    between atoms: _276  and  _277
REMARK  112  A    between atoms: _280  and  _282
REMARK  113  A    between atoms: _282  and  _283
REMARK  114  A    between atoms: _285  and  _287
REMARK  115  A    between atoms: _287  and  _288
REMARK  116  A    between atoms: _287  and  _290
REMARK  117  A    between atoms: _290  and  _291
REMARK  118  A    between atoms: _291  and  _292
REMARK  119  A    between atoms: _295  and  _297
REMARK  120  A    between atoms: _297  and  _298
REMARK  121  A    between atoms: _297  and  _300
REMARK  122  A    between atoms: _303  and  _305
REMARK  123  A    between atoms: _305  and  _306
REMARK  124  A    between atoms: _305  and  _308
REMARK  125  A    between atoms: _308  and  _309
REMARK  126  A    between atoms: _314  and  _315
REMARK  127  A    between atoms: _317  and  _319
REMARK  128  A    between atoms: _319  and  _320
REMARK  129  A    between atoms: _319  and  _322
REMARK  130  A    between atoms: _322  and  _323
REMARK  131  A    between atoms: _326  and  _328
REMARK  132  A    between atoms: _328  and  _329
REMARK  133  A    between atoms: _328  and  _331
REMARK  134  A    between atoms: _331  and  _332
REMARK  135  A    between atoms: _332  and  _333
REMARK  136  A    between atoms: _333  and  _334
REMARK  137  A    between atoms: _343  and  _345
REMARK  138  A    between atoms: _345  and  _346
REMARK  139  A    between atoms: _345  and  _348
REMARK  140  A    between atoms: _348  and  _349
REMARK  141  A    between atoms: _352  and  _354
REMARK  142  A    between atoms: _354  and  _355
REMARK  143  A    between atoms: _354  and  _357
REMARK  144  A    between atoms: _357  and  _358
REMARK  145  A    between atoms: _363  and  _365
REMARK  146  A    between atoms: _365  and  _366
REMARK  147  A    between atoms: _365  and  _368
REMARK  148  A    between atoms: _371  and  _373
REMARK  149  A    between atoms: _373  and  _374
REMARK  150  A    between atoms: _373  and  _376
REMARK  151  A    between atoms: _376  and  _377
REMARK  152  A    between atoms: _382  and  _384
REMARK  153  A    between atoms: _384  and  _385
REMARK  154  A    between atoms: _384  and  _387
REMARK  155  A    between atoms: _387  and  _388
REMARK  156  A    between atoms: _391  and  _393
REMARK  157  A    between atoms: _393  and  _394
REMARK  158  A    between atoms: _393  and  _396
REMARK  159  A    between atoms: _396  and  _397
REMARK                            x       y       z     vdW  Elec       q    Type
REMARK                         _______ _______ _______ _____ _____    ______ ____
ROOT
ATOM      1  O   HOH     1      43.043  21.775 -12.639  0.00  0.00    +0.000 OA
ENDROOT
TORSDOF 0
REMARK  Name = ../refined-set-2016/1tmn/1tmn_pocket.pdb
REMARK  159 active torsions:
REMARK  status: ('A' for Active; 'I' for Inactive)
REMARK    1  A    between atoms: _1  and  _3
REMARK    2  A    between atoms: _3  and  _4
REMARK    3  A    between atoms: _3  and  _6
REMARK    4  A    between atoms: _6  and  _7
REMARK    5  A    between atoms: _12  and  _13
REMARK    6  A    between atoms: _15  and  _17
REMARK    7  A    between atoms: _17  and  _18
REMARK    8  A    between atoms: _17  and  _20
REMARK    9  A    between atoms: _20  and  _21
REMARK   10  A    between atoms: _26  and  _27
REMARK   11  A    between atoms: _29  and  _31
REMARK   12  A    between atoms: _31  and  _32
REMARK   13  A    between atoms: _31  and  _34
REMARK   14  A    between atoms: _34  and  _35
REMARK   15  A    between atoms: _40  and  _42
REMARK   16  A    between atoms: _42  and  _43
REMARK   17  A    between atoms: _42  and  _45
REMARK   18  A    between atoms: _45  and  _46
REMARK   19  A    between atoms: _51  and  _53
REMARK   20  A    between atoms: _53  and  _54
REMARK   21  A    between atoms: _57  and  _59
REMARK   22  A    between atoms: _59  and  _60
REMARK   23  A    between atoms: _59  and  _62
REMARK   24  A    between atoms: _62  and  _63
REMARK   25  A    between atoms: _69  and  _71
REMARK   26  A    between atoms: _71  and  _72
REMARK   27  A    between atoms: _71  and  _74
REMARK   28  A    between atoms: _74  and  _75
REMARK   29  A    between atoms: _85  and  _87
REMARK   30  A    between atoms: _87  and  _88
REMARK   31  A    between atoms: _87  and  _90
REMARK   32  A    between atoms: _93  and  _95
REMARK   33  A    between atoms: _95  and  _96
REMARK   34  A    between atoms: _95  and  _98
REMARK   35  A    between atoms: _98  and  _99
REMARK   36  A    between atoms: _104  and  _105
REMARK   37  A    between atoms: _107  and  _109
REMARK   38  A    between atoms: _109  and  _110
REMARK   39  A    between atoms: _109  and  _112
REMARK   40  A    between atoms: _112  and  _113
REMARK   41  A    between atoms: _116  and  _118
REMARK   42  A    between atoms: _118  and  _119
REMARK   43  A    between atoms: _118  and  _121
REMARK   44  A    between atoms: _121  and  _122
REMARK   45  A    between atoms: _128  and  _130
REMARK   46  A    between atoms: _130  and  _131
REMARK   47  A    between atoms: _130  and  _133
REMARK   48  A    between atoms: _133  and  _134
REMARK   49  A    between atoms: _137  and  _139
REMARK   50  A    between atoms: _139  and  _140
REMARK   51  A    between atoms: _142  and  _144
REMARK   52  A    between atoms: _144  and  _145
REMARK   53  A    between atoms: _144  and  _147
REMARK   54  A    between atoms: _147  and  _148
REMARK   55  A    between atoms: _151  and  _153
REMARK   56  A    between atoms: _153  and  _154
REMARK   57  A    between atoms: _153  and  _156
REMARK   58  A    between atoms: _159  and  _161
REMARK   59  A    between atoms: _161  and  _162
REMARK   60  A    between atoms: _161  and  _164
REMARK   61  A    between atoms: _167  and  _169
REMARK   62  A    between atoms: _169  and  _170
REMARK   63  A    between atoms: _173  and  _175
REMARK   64  A    between atoms: _175  and  _176
REMARK   65  A    between atoms: _175  and  _178
REMARK   66  A    between atoms: _178  and  _179
REMARK   67  A    between atoms: _183  and  ZN_399
REMARK   68  A    between atoms: _184  and  _186
REMARK   69  A    between atoms: _186  and  _187
REMARK   70  A    between atoms: _186  and  _189
REMARK   71  A    between atoms: _189  and  _190
REMARK   72  A    between atoms: _190  and  _191
REMARK   73  A    between atoms: _194  and  _196
REMARK   74  A    between atoms: _196  and  _197
REMARK   75  A    between atoms: _196  and  _199
REMARK   76  A    between atoms: _199  and  _200
REMARK   77  A    between atoms: _203  and  _205
REMARK   78  A    between atoms: _205  and  _206
REMARK   79  A    between atoms: _205  and  _208
REMARK   80  A    between atoms: _208  and  _209
REMARK   81  A    between atoms: _213  and  ZN_399
REMARK   82  A    between atoms: _214  and  _216
REMARK   83  A    between atoms: _216  and  _217
REMARK   84  A    between atoms: _216  and  _219
REMARK   85  A    between atoms: _219  and  _220
REMARK   86  A    between atoms: _225  and  _226
REMARK   87  A    between atoms: _228  and  _230
REMARK   88  A    between atoms: _230  and  _231
REMARK   89  A    between atoms: _233  and  _235
REMARK   90  A    between atoms: _235  and  _236
REMARK   91  A    between atoms: _235  and  _238
REMARK   92  A    between atoms: _238  and  _239
REMARK   93  A    between atoms: _244  and  _246
REMARK   94  A    between atoms: _246  and  _247
REMARK   95  A    between atoms: _246  and  _249
REMARK   96  A    between atoms: _249  and  _250
REMARK   97  A    between atoms: _250  and  _251
REMARK   98  A    between atoms: _251  and  _252
REMARK   99  A    between atoms: _252  and  ZN_399
REMARK  100  A    between atoms: _254  and  _256
REMARK  101  A    between atoms: _256  and  _257
REMARK  102  A    between atoms: _256  and  _259
REMARK  103  A    between atoms: _259  and  _260
REMARK  104  A    between atoms: _262  and  _264
REMARK  105  A    between atoms: _264  and  _265
REMARK  106  A    between atoms: _264  and  _267
REMARK  107  A    between atoms: _267  and  _268
REMARK  108  A    between atoms: _271  and  _273
REMARK  109  A    between atoms: _273  and  _274
REMARK  110  A    between atoms: _273  and  _276
REMARK  111  A    between atoms: _276  and  _277
REMARK  112  A    between atoms: _280  and  _282
REMARK  113  A    between atoms: _282  and  _283
REMARK  114  A    between atoms: _285  and  _287
REMARK  115  A    between atoms: _287  and  _288
REMARK  116  A    between atoms: _287  and  _290
REMARK  117  A    between atoms: _290  and  _291
REMARK  118  A    between atoms: _291  and  _292
REMARK  119  A    between atoms: _295  and  _297
REMARK  120  A    between atoms: _297  and  _298
REMARK  121  A    between atoms: _297  and  _300
REMARK  122  A    between atoms: _303  and  _305
REMARK  123  A    between atoms: _305  and  _306
REMARK  124  A    between atoms: _305  and  _308
REMARK  125  A    between atoms: _308  and  _309
REMARK  126  A    between atoms: _314  and  _315
REMARK  127  A    between atoms: _317  and  _319
REMARK  128  A    between atoms: _319  and  _320
REMARK  129  A    between atoms: _319  and  _322
REMARK  130  A    between atoms: _322  and  _323
REMARK  131  A    between atoms: _326  and  _328
REMARK  132  A    between atoms: _328  and  _329
REMARK  133  A    between atoms: _328  and  _331
REMARK  134  A    between atoms: _331  and  _332
REMARK  135  A    between atoms: _332  and  _333
REMARK  136  A    between atoms: _333  and  _334
REMARK  137  A    between atoms: _343  and  _345
REMARK  138  A    between atoms: _345  and  _346
REMARK  139  A    between atoms: _345  and  _348
REMARK  140  A    between atoms: _348  and  _349
REMARK  141  A    between atoms: _352  and  _354
REMARK  142  A    between atoms: _354  and  _355
REMARK  143  A    between atoms: _354  and  _357
REMARK  144  A    between atoms: _357  and  _358
REMARK  145  A    between atoms: _363  and  _365
REMARK  146  A    between atoms: _365  and  _366
REMARK  147  A    between atoms: _365  and  _368
REMARK  148  A    between atoms: _371  and  _373
REMARK  149  A    between atoms: _373  and  _374
REMARK  150  A    between atoms: _373  and  _376
REMARK  151  A    between atoms: _376  and  _377
REMARK  152  A    between atoms: _382  and  _384
REMARK  153  A    between atoms: _384  and  _385
REMARK  154  A    between atoms: _384  and  _387
REMARK  155  A    between atoms: _387  and  _388
REMARK  156  A    between atoms: _391  and  _393
REMARK  157  A    between atoms: _393  and  _394
REMARK  158  A    between atoms: _393  and  _396
REMARK  159  A    between atoms: _396  and  _397
REMARK                            x       y       z     vdW  Elec       q    Type
REMARK                         _______ _______ _______ _____ _____    ______ ____
ROOT
ATOM      1  O   HOH     1      57.002  21.401   6.250  0.00  0.00    +0.000 OA
ENDROOT
TORSDOF 0
REMARK  Name = ../refined-set-2016/1tmn/1tmn_pocket.pdb
REMARK  159 active torsions:
REMARK  status: ('A' for Active; 'I' for Inactive)
REMARK    1  A    between atoms: _1  and  _3
REMARK    2  A    between atoms: _3  and  _4
REMARK    3  A    between atoms: _3  and  _6
REMARK    4  A    between atoms: _6  and  _7
REMARK    5  A    between atoms: _12  and  _13
REMARK    6  A    between atoms: _15  and  _17
REMARK    7  A    between atoms: _17  and  _18
REMARK    8  A    between atoms: _17  and  _20
REMARK    9  A    between atoms: _20  and  _21
REMARK   10  A    between atoms: _26  and  _27
REMARK   11  A    between atoms: _29  and  _31
REMARK   12  A    between atoms: _31  and  _32
REMARK   13  A    between atoms: _31  and  _34
REMARK   14  A    between atoms: _34  and  _35
REMARK   15  A    between atoms: _40  and  _42
REMARK   16  A    between atoms: _42  and  _43
REMARK   17  A    between atoms: _42  and  _45
REMARK   18  A    between atoms: _45  and  _46
REMARK   19  A    between atoms: _51  and  _53
REMARK   20  A    between atoms: _53  and  _54
REMARK   21  A    between atoms: _57  and  _59
REMARK   22  A    between atoms: _59  and  _60
REMARK   23  A    between atoms: _59  and  _62
REMARK   24  A    between atoms: _62  and  _63
REMARK   25  A    between atoms: _69  and  _71
REMARK   26  A    between atoms: _71  and  _72
REMARK   27  A    between atoms: _71  and  _74
REMARK   28  A    between atoms: _74  and  _75
REMARK   29  A    between atoms: _85  and  _87
REMARK   30  A    between atoms: _87  and  _88
REMARK   31  A    between atoms: _87  and  _90
REMARK   32  A    between atoms: _93  and  _95
REMARK   33  A    between atoms: _95  and  _96
REMARK   34  A    between atoms: _95  and  _98
REMARK   35  A    between atoms: _98  and  _99
REMARK   36  A    between atoms: _104  and  _105
REMARK   37  A    between atoms: _107  and  _109
REMARK   38  A    between atoms: _109  and  _110
REMARK   39  A    between atoms: _109  and  _112
REMARK   40  A    between atoms: _112  and  _113
REMARK   41  A    between atoms: _116  and  _118
REMARK   42  A    between atoms: _118  and  _119
REMARK   43  A    between atoms: _118  and  _121
REMARK   44  A    between atoms: _121  and  _122
REMARK   45  A    between atoms: _128  and  _130
REMARK   46  A    between atoms: _130  and  _131
REMARK   47  A    between atoms: _130  and  _133
REMARK   48  A    between atoms: _133  and  _134
REMARK   49  A    between atoms: _137  and  _139
REMARK   50  A    between atoms: _139  and  _140
REMARK   51  A    between atoms: _142  and  _144
REMARK   52  A    between atoms: _144  and  _145
REMARK   53  A    between atoms: _144  and  _147
REMARK   54  A    between atoms: _147  and  _148
REMARK   55  A    between atoms: _151  and  _153
REMARK   56  A    between atoms: _153  and  _154
REMARK   57  A    between atoms: _153  and  _156
REMARK   58  A    between atoms: _159  and  _161
REMARK   59  A    between atoms: _161  and  _162
REMARK   60  A    between atoms: _161  and  _164
REMARK   61  A    between atoms: _167  and  _169
REMARK   62  A    between atoms: _169  and  _170
REMARK   63  A    between atoms: _173  and  _175
REMARK   64  A    between atoms: _175  and  _176
REMARK   65  A    between atoms: _175  and  _178
REMARK   66  A    between atoms: _178  and  _179
REMARK   67  A    between atoms: _183  and  ZN_399
REMARK   68  A    between atoms: _184  and  _186
REMARK   69  A    between atoms: _186  and  _187
REMARK   70  A    between atoms: _186  and  _189
REMARK   71  A    between atoms: _189  and  _190
REMARK   72  A    between atoms: _190  and  _191
REMARK   73  A    between atoms: _194  and  _196
REMARK   74  A    between atoms: _196  and  _197
REMARK   75  A    between atoms: _196  and  _199
REMARK   76  A    between atoms: _199  and  _200
REMARK   77  A    between atoms: _203  and  _205
REMARK   78  A    between atoms: _205  and  _206
REMARK   79  A    between atoms: _205  and  _208
REMARK   80  A    between atoms: _208  and  _209
REMARK   81  A    between atoms: _213  and  ZN_399
REMARK   82  A    between atoms: _214  and  _216
REMARK   83  A    between atoms: _216  and  _217
REMARK   84  A    between atoms: _216  and  _219
REMARK   85  A    between atoms: _219  and  _220
REMARK   86  A    between atoms: _225  and  _226
REMARK   87  A    between atoms: _228  and  _230
REMARK   88  A    between atoms: _230  and  _231
REMARK   89  A    between atoms: _233  and  _235
REMARK   90  A    between atoms: _235  and  _236
REMARK   91  A    between atoms: _235  and  _238
REMARK   92  A    between atoms: _238  and  _239
REMARK   93  A    between atoms: _244  and  _246
REMARK   94  A    between atoms: _246  and  _247
REMARK   95  A    between atoms: _246  and  _249
REMARK   96  A    between atoms: _249  and  _250
REMARK   97  A    between atoms: _250  and  _251
REMARK   98  A    between atoms: _251  and  _252
REMARK   99  A    between atoms: _252  and  ZN_399
REMARK  100  A    between atoms: _254  and  _256
REMARK  101  A    between atoms: _256  and  _257
REMARK  102  A    between atoms: _256  and  _259
REMARK  103  A    between atoms: _259  and  _260
REMARK  104  A    between atoms: _262  and  _264
REMARK  105  A    between atoms: _264  and  _265
REMARK  106  A    between atoms: _264  and  _267
REMARK  107  A    between atoms: _267  and  _268
REMARK  108  A    between atoms: _271  and  _273
REMARK  109  A    between atoms: _273  and  _274
REMARK  110  A    between atoms: _273  and  _276
REMARK  111  A    between atoms: _276  and  _277
REMARK  112  A    between atoms: _280  and  _282
REMARK  113  A    between atoms: _282  and  _283
REMARK  114  A    between atoms: _285  and  _287
REMARK  115  A    between atoms: _287  and  _288
REMARK  116  A    between atoms: _287  and  _290
REMARK  117  A    between atoms: _290  and  _291
REMARK  118  A    between atoms: _291  and  _292
REMARK  119  A    between atoms: _295  and  _297
REMARK  120  A    between atoms: _297  and  _298
REMARK  121  A    between atoms: _297  and  _300
REMARK  122  A    between atoms: _303  and  _305
REMARK  123  A    between atoms: _305  and  _306
REMARK  124  A    between atoms: _305  and  _308
REMARK  125  A    between atoms: _308  and  _309
REMARK  126  A    between atoms: _314  and  _315
REMARK  127  A    between atoms: _317  and  _319
REMARK  128  A    between atoms: _319  and  _320
REMARK  129  A    between atoms: _319  and  _322
REMARK  130  A    between atoms: _322  and  _323
REMARK  131  A    between atoms: _326  and  _328
REMARK  132  A    between atoms: _328  and  _329
REMARK  133  A    between atoms: _328  and  _331
REMARK  134  A    between atoms: _331  and  _332
REMARK  135  A    between atoms: _332  and  _333
REMARK  136  A    between atoms: _333  and  _334
REMARK  137  A    between atoms: _343  and  _345
REMARK  138  A    between atoms: _345  and  _346
REMARK  139  A    between atoms: _345  and  _348
REMARK  140  A    between atoms: _348  and  _349
REMARK  141  A    between atoms: _352  and  _354
REMARK  142  A    between atoms: _354  and  _355
REMARK  143  A    between atoms: _354  and  _357
REMARK  144  A    between atoms: _357  and  _358
REMARK  145  A    between atoms: _363  and  _365
REMARK  146  A    between atoms: _365  and  _366
REMARK  147  A    between atoms: _365  and  _368
REMARK  148  A    between atoms: _371  and  _373
REMARK  149  A    between atoms: _373  and  _374
REMARK  150  A    between atoms: _373  and  _376
REMARK  151  A    between atoms: _376  and  _377
REMARK  152  A    between atoms: _382  and  _384
REMARK  153  A    between atoms: _384  and  _385
REMARK  154  A    between atoms: _384  and  _387
REMARK  155  A    between atoms: _387  and  _388
REMARK  156  A    between atoms: _391  and  _393
REMARK  157  A    between atoms: _393  and  _394
REMARK  158  A    between atoms: _393  and  _396
REMARK  159  A    between atoms: _396  and  _397
REMARK                            x       y       z     vdW  Elec       q    Type
REMARK                         _______ _______ _______ _____ _____    ______ ____
ROOT
ATOM      1  O   HOH     1      49.942  21.040  -8.034  0.00  0.00    +0.000 OA
ENDROOT
TORSDOF 0
REMARK  Name = ../refined-set-2016/1tmn/1tmn_pocket.pdb
REMARK  159 active torsions:
REMARK  status: ('A' for Active; 'I' for Inactive)
REMARK    1  A    between atoms: _1  and  _3
REMARK    2  A    between atoms: _3  and  _4
REMARK    3  A    between atoms: _3  and  _6
REMARK    4  A    between atoms: _6  and  _7
REMARK    5  A    between atoms: _12  and  _13
REMARK    6  A    between atoms: _15  and  _17
REMARK    7  A    between atoms: _17  and  _18
REMARK    8  A    between atoms: _17  and  _20
REMARK    9  A    between atoms: _20  and  _21
REMARK   10  A    between atoms: _26  and  _27
REMARK   11  A    between atoms: _29  and  _31
REMARK   12  A    between atoms: _31  and  _32
REMARK   13  A    between atoms: _31  and  _34
REMARK   14  A    between atoms: _34  and  _35
REMARK   15  A    between atoms: _40  and  _42
REMARK   16  A    between atoms: _42  and  _43
REMARK   17  A    between atoms: _42  and  _45
REMARK   18  A    between atoms: _45  and  _46
REMARK   19  A    between atoms: _51  and  _53
REMARK   20  A    between atoms: _53  and  _54
REMARK   21  A    between atoms: _57  and  _59
REMARK   22  A    between atoms: _59  and  _60
REMARK   23  A    between atoms: _59  and  _62
REMARK   24  A    between atoms: _62  and  _63
REMARK   25  A    between atoms: _69  and  _71
REMARK   26  A    between atoms: _71  and  _72
REMARK   27  A    between atoms: _71  and  _74
REMARK   28  A    between atoms: _74  and  _75
REMARK   29  A    between atoms: _85  and  _87
REMARK   30  A    between atoms: _87  and  _88
REMARK   31  A    between atoms: _87  and  _90
REMARK   32  A    between atoms: _93  and  _95
REMARK   33  A    between atoms: _95  and  _96
REMARK   34  A    between atoms: _95  and  _98
REMARK   35  A    between atoms: _98  and  _99
REMARK   36  A    between atoms: _104  and  _105
REMARK   37  A    between atoms: _107  and  _109
REMARK   38  A    between atoms: _109  and  _110
REMARK   39  A    between atoms: _109  and  _112
REMARK   40  A    between atoms: _112  and  _113
REMARK   41  A    between atoms: _116  and  _118
REMARK   42  A    between atoms: _118  and  _119
REMARK   43  A    between atoms: _118  and  _121
REMARK   44  A    between atoms: _121  and  _122
REMARK   45  A    between atoms: _128  and  _130
REMARK   46  A    between atoms: _130  and  _131
REMARK   47  A    between atoms: _130  and  _133
REMARK   48  A    between atoms: _133  and  _134
REMARK   49  A    between atoms: _137  and  _139
REMARK   50  A    between atoms: _139  and  _140
REMARK   51  A    between atoms: _142  and  _144
REMARK   52  A    between atoms: _144  and  _145
REMARK   53  A    between atoms: _144  and  _147
REMARK   54  A    between atoms: _147  and  _148
REMARK   55  A    between atoms: _151  and  _153
REMARK   56  A    between atoms: _153  and  _154
REMARK   57  A    between atoms: _153  and  _156
REMARK   58  A    between atoms: _159  and  _161
REMARK   59  A    between atoms: _161  and  _162
REMARK   60  A    between atoms: _161  and  _164
REMARK   61  A    between atoms: _167  and  _169
REMARK   62  A    between atoms: _169  and  _170
REMARK   63  A    between atoms: _173  and  _175
REMARK   64  A    between atoms: _175  and  _176
REMARK   65  A    between atoms: _175  and  _178
REMARK   66  A    between atoms: _178  and  _179
REMARK   67  A    between atoms: _183  and  ZN_399
REMARK   68  A    between atoms: _184  and  _186
REMARK   69  A    between atoms: _186  and  _187
REMARK   70  A    between atoms: _186  and  _189
REMARK   71  A    between atoms: _189  and  _190
REMARK   72  A    between atoms: _190  and  _191
REMARK   73  A    between atoms: _194  and  _196
REMARK   74  A    between atoms: _196  and  _197
REMARK   75  A    between atoms: _196  and  _199
REMARK   76  A    between atoms: _199  and  _200
REMARK   77  A    between atoms: _203  and  _205
REMARK   78  A    between atoms: _205  and  _206
REMARK   79  A    between atoms: _205  and  _208
REMARK   80  A    between atoms: _208  and  _209
REMARK   81  A    between atoms: _213  and  ZN_399
REMARK   82  A    between atoms: _214  and  _216
REMARK   83  A    between atoms: _216  and  _217
REMARK   84  A    between atoms: _216  and  _219
REMARK   85  A    between atoms: _219  and  _220
REMARK   86  A    between atoms: _225  and  _226
REMARK   87  A    between atoms: _228  and  _230
REMARK   88  A    between atoms: _230  and  _231
REMARK   89  A    between atoms: _233  and  _235
REMARK   90  A    between atoms: _235  and  _236
REMARK   91  A    between atoms: _235  and  _238
REMARK   92  A    between atoms: _238  and  _239
REMARK   93  A    between atoms: _244  and  _246
REMARK   94  A    between atoms: _246  and  _247
REMARK   95  A    between atoms: _246  and  _249
REMARK   96  A    between atoms: _249  and  _250
REMARK   97  A    between atoms: _250  and  _251
REMARK   98  A    between atoms: _251  and  _252
REMARK   99  A    between atoms: _252  and  ZN_399
REMARK  100  A    between atoms: _254  and  _256
REMARK  101  A    between atoms: _256  and  _257
REMARK  102  A    between atoms: _256  and  _259
REMARK  103  A    between atoms: _259  and  _260
REMARK  104  A    between atoms: _262  and  _264
REMARK  105  A    between atoms: _264  and  _265
REMARK  106  A    between atoms: _264  and  _267
REMARK  107  A    between atoms: _267  and  _268
REMARK  108  A    between atoms: _271  and  _273
REMARK  109  A    between atoms: _273  and  _274
REMARK  110  A    between atoms: _273  and  _276
REMARK  111  A    between atoms: _276  and  _277
REMARK  112  A    between atoms: _280  and  _282
REMARK  113  A    between atoms: _282  and  _283
REMARK  114  A    between atoms: _285  and  _287
REMARK  115  A    between atoms: _287  and  _288
REMARK  116  A    between atoms: _287  and  _290
REMARK  117  A    between atoms: _290  and  _291
REMARK  118  A    between atoms: _291  and  _292
REMARK  119  A    between atoms: _295  and  _297
REMARK  120  A    between atoms: _297  and  _298
REMARK  121  A    between atoms: _297  and  _300
REMARK  122  A    between atoms: _303  and  _305
REMARK  123  A    between atoms: _305  and  _306
REMARK  124  A    between atoms: _305  and  _308
REMARK  125  A    between atoms: _308  and  _309
REMARK  126  A    between atoms: _314  and  _315
REMARK  127  A    between atoms: _317  and  _319
REMARK  128  A    between atoms: _319  and  _320
REMARK  129  A    between atoms: _319  and  _322
REMARK  130  A    between atoms: _322  and  _323
REMARK  131  A    between atoms: _326  and  _328
REMARK  132  A    between atoms: _328  and  _329
REMARK  133  A    between atoms: _328  and  _331
REMARK  134  A    between atoms: _331  and  _332
REMARK  135  A    between atoms: _332  and  _333
REMARK  136  A    between atoms: _333  and  _334
REMARK  137  A    between atoms: _343  and  _345
REMARK  138  A    between atoms: _345  and  _346
REMARK  139  A    between atoms: _345  and  _348
REMARK  140  A    between atoms: _348  and  _349
REMARK  141  A    between atoms: _352  and  _354
REMARK  142  A    between atoms: _354  and  _355
REMARK  143  A    between atoms: _354  and  _357
REMARK  144  A    between atoms: _357  and  _358
REMARK  145  A    between atoms: _363  and  _365
REMARK  146  A    between atoms: _365  and  _366
REMARK  147  A    between atoms: _365  and  _368
REMARK  148  A    between atoms: _371  and  _373
REMARK  149  A    between atoms: _373  and  _374
REMARK  150  A    between atoms: _373  and  _376
REMARK  151  A    between atoms: _376  and  _377
REMARK  152  A    between atoms: _382  and  _384
REMARK  153  A    between atoms: _384  and  _385
REMARK  154  A    between atoms: _384  and  _387
REMARK  155  A    between atoms: _387  and  _388
REMARK  156  A    between atoms: _391  and  _393
REMARK  157  A    between atoms: _393  and  _394
REMARK  158  A    between atoms: _393  and  _396
REMARK  159  A    between atoms: _396  and  _397
REMARK                            x       y       z     vdW  Elec       q    Type
REMARK                         _______ _______ _______ _____ _____    ______ ____
ROOT
ATOM      1  O   HOH     1      59.605  17.456  -6.566  0.00  0.00    +0.000 OA
ENDROOT
TORSDOF 0
REMARK  Name = ../refined-set-2016/1tmn/1tmn_pocket.pdb
REMARK  159 active torsions:
REMARK  status: ('A' for Active; 'I' for Inactive)
REMARK    1  A    between atoms: _1  and  _3
REMARK    2  A    between atoms: _3  and  _4
REMARK    3  A    between atoms: _3  and  _6
REMARK    4  A    between atoms: _6  and  _7
REMARK    5  A    between atoms: _12  and  _13
REMARK    6  A    between atoms: _15  and  _17
REMARK    7  A    between atoms: _17  and  _18
REMARK    8  A    between atoms: _17  and  _20
REMARK    9  A    between atoms: _20  and  _21
REMARK   10  A    between atoms: _26  and  _27
REMARK   11  A    between atoms: _29  and  _31
REMARK   12  A    between atoms: _31  and  _32
REMARK   13  A    between atoms: _31  and  _34
REMARK   14  A    between atoms: _34  and  _35
REMARK   15  A    between atoms: _40  and  _42
REMARK   16  A    between atoms: _42  and  _43
REMARK   17  A    between atoms: _42  and  _45
REMARK   18  A    between atoms: _45  and  _46
REMARK   19  A    between atoms: _51  and  _53
REMARK   20  A    between atoms: _53  and  _54
REMARK   21  A    between atoms: _57  and  _59
REMARK   22  A    between atoms: _59  and  _60
REMARK   23  A    between atoms: _59  and  _62
REMARK   24  A    between atoms: _62  and  _63
REMARK   25  A    between atoms: _69  and  _71
REMARK   26  A    between atoms: _71  and  _72
REMARK   27  A    between atoms: _71  and  _74
REMARK   28  A    between atoms: _74  and  _75
REMARK   29  A    between atoms: _85  and  _87
REMARK   30  A    between atoms: _87  and  _88
REMARK   31  A    between atoms: _87  and  _90
REMARK   32  A    between atoms: _93  and  _95
REMARK   33  A    between atoms: _95  and  _96
REMARK   34  A    between atoms: _95  and  _98
REMARK   35  A    between atoms: _98  and  _99
REMARK   36  A    between atoms: _104  and  _105
REMARK   37  A    between atoms: _107  and  _109
REMARK   38  A    between atoms: _109  and  _110
REMARK   39  A    between atoms: _109  and  _112
REMARK   40  A    between atoms: _112  and  _113
REMARK   41  A    between atoms: _116  and  _118
REMARK   42  A    between atoms: _118  and  _119
REMARK   43  A    between atoms: _118  and  _121
REMARK   44  A    between atoms: _121  and  _122
REMARK   45  A    between atoms: _128  and  _130
REMARK   46  A    between atoms: _130  and  _131
REMARK   47  A    between atoms: _130  and  _133
REMARK   48  A    between atoms: _133  and  _134
REMARK   49  A    between atoms: _137  and  _139
REMARK   50  A    between atoms: _139  and  _140
REMARK   51  A    between atoms: _142  and  _144
REMARK   52  A    between atoms: _144  and  _145
REMARK   53  A    between atoms: _144  and  _147
REMARK   54  A    between atoms: _147  and  _148
REMARK   55  A    between atoms: _151  and  _153
REMARK   56  A    between atoms: _153  and  _154
REMARK   57  A    between atoms: _153  and  _156
REMARK   58  A    between atoms: _159  and  _161
REMARK   59  A    between atoms: _161  and  _162
REMARK   60  A    between atoms: _161  and  _164
REMARK   61  A    between atoms: _167  and  _169
REMARK   62  A    between atoms: _169  and  _170
REMARK   63  A    between atoms: _173  and  _175
REMARK   64  A    between atoms: _175  and  _176
REMARK   65  A    between atoms: _175  and  _178
REMARK   66  A    between atoms: _178  and  _179
REMARK   67  A    between atoms: _183  and  ZN_399
REMARK   68  A    between atoms: _184  and  _186
REMARK   69  A    between atoms: _186  and  _187
REMARK   70  A    between atoms: _186  and  _189
REMARK   71  A    between atoms: _189  and  _190
REMARK   72  A    between atoms: _190  and  _191
REMARK   73  A    between atoms: _194  and  _196
REMARK   74  A    between atoms: _196  and  _197
REMARK   75  A    between atoms: _196  and  _199
REMARK   76  A    between atoms: _199  and  _200
REMARK   77  A    between atoms: _203  and  _205
REMARK   78  A    between atoms: _205  and  _206
REMARK   79  A    between atoms: _205  and  _208
REMARK   80  A    between atoms: _208  and  _209
REMARK   81  A    between atoms: _213  and  ZN_399
REMARK   82  A    between atoms: _214  and  _216
REMARK   83  A    between atoms: _216  and  _217
REMARK   84  A    between atoms: _216  and  _219
REMARK   85  A    between atoms: _219  and  _220
REMARK   86  A    between atoms: _225  and  _226
REMARK   87  A    between atoms: _228  and  _230
REMARK   88  A    between atoms: _230  and  _231
REMARK   89  A    between atoms: _233  and  _235
REMARK   90  A    between atoms: _235  and  _236
REMARK   91  A    between atoms: _235  and  _238
REMARK   92  A    between atoms: _238  and  _239
REMARK   93  A    between atoms: _244  and  _246
REMARK   94  A    between atoms: _246  and  _247
REMARK   95  A    between atoms: _246  and  _249
REMARK   96  A    between atoms: _249  and  _250
REMARK   97  A    between atoms: _250  and  _251
REMARK   98  A    between atoms: _251  and  _252
REMARK   99  A    between atoms: _252  and  ZN_399
REMARK  100  A    between atoms: _254  and  _256
REMARK  101  A    between atoms: _256  and  _257
REMARK  102  A    between atoms: _256  and  _259
REMARK  103  A    between atoms: _259  and  _260
REMARK  104  A    between atoms: _262  and  _264
REMARK  105  A    between atoms: _264  and  _265
REMARK  106  A    between atoms: _264  and  _267
REMARK  107  A    between atoms: _267  and  _268
REMARK  108  A    between atoms: _271  and  _273
REMARK  109  A    between atoms: _273  and  _274
REMARK  110  A    between atoms: _273  and  _276
REMARK  111  A    between atoms: _276  and  _277
REMARK  112  A    between atoms: _280  and  _282
REMARK  113  A    between atoms: _282  and  _283
REMARK  114  A    between atoms: _285  and  _287
REMARK  115  A    between atoms: _287  and  _288
REMARK  116  A    between atoms: _287  and  _290
REMARK  117  A    between atoms: _290  and  _291
REMARK  118  A    between atoms: _291  and  _292
REMARK  119  A    between atoms: _295  and  _297
REMARK  120  A    between atoms: _297  and  _298
REMARK  121  A    between atoms: _297  and  _300
REMARK  122  A    between atoms: _303  and  _305
REMARK  123  A    between atoms: _305  and  _306
REMARK  124  A    between atoms: _305  and  _308
REMARK  125  A    between atoms: _308  and  _309
REMARK  126  A    between atoms: _314  and  _315
REMARK  127  A    between atoms: _317  and  _319
REMARK  128  A    between atoms: _319  and  _320
REMARK  129  A    between atoms: _319  and  _322
REMARK  130  A    between atoms: _322  and  _323
REMARK  131  A    between atoms: _326  and  _328
REMARK  132  A    between atoms: _328  and  _329
REMARK  133  A    between atoms: _328  and  _331
REMARK  134  A    between atoms: _331  and  _332
REMARK  135  A    between atoms: _332  and  _333
REMARK  136  A    between atoms: _333  and  _334
REMARK  137  A    between atoms: _343  and  _345
REMARK  138  A    between atoms: _345  and  _346
REMARK  139  A    between atoms: _345  and  _348
REMARK  140  A    between atoms: _348  and  _349
REMARK  141  A    between atoms: _352  and  _354
REMARK  142  A    between atoms: _354  and  _355
REMARK  143  A    between atoms: _354  and  _357
REMARK  144  A    between atoms: _357  and  _358
REMARK  145  A    between atoms: _363  and  _365
REMARK  146  A    between atoms: _365  and  _366
REMARK  147  A    between atoms: _365  and  _368
REMARK  148  A    between atoms: _371  and  _373
REMARK  149  A    between atoms: _373  and  _374
REMARK  150  A    between atoms: _373  and  _376
REMARK  151  A    between atoms: _376  and  _377
REMARK  152  A    between atoms: _382  and  _384
REMARK  153  A    between atoms: _384  and  _385
REMARK  154  A    between atoms: _384  and  _387
REMARK  155  A    between atoms: _387  and  _388
REMARK  156  A    between atoms: _391  and  _393
REMARK  157  A    between atoms: _393  and  _394
REMARK  158  A    between atoms: _393  and  _396
REMARK  159  A    between atoms: _396  and  _397
REMARK                            x       y       z     vdW  Elec       q    Type
REMARK                         _______ _______ _______ _____ _____    ______ ____
ROOT
ATOM      1  O   HOH     1      39.671  14.291  -5.516  0.00  0.00    +0.000 OA
ENDROOT
TORSDOF 0
REMARK  Name = ../refined-set-2016/1tmn/1tmn_pocket.pdb
REMARK  159 active torsions:
REMARK  status: ('A' for Active; 'I' for Inactive)
REMARK    1  A    between atoms: _1  and  _3
REMARK    2  A    between atoms: _3  and  _4
REMARK    3  A    between atoms: _3  and  _6
REMARK    4  A    between atoms: _6  and  _7
REMARK    5  A    between atoms: _12  and  _13
REMARK    6  A    between atoms: _15  and  _17
REMARK    7  A    between atoms: _17  and  _18
REMARK    8  A    between atoms: _17  and  _20
REMARK    9  A    between atoms: _20  and  _21
REMARK   10  A    between atoms: _26  and  _27
REMARK   11  A    between atoms: _29  and  _31
REMARK   12  A    between atoms: _31  and  _32
REMARK   13  A    between atoms: _31  and  _34
REMARK   14  A    between atoms: _34  and  _35
REMARK   15  A    between atoms: _40  and  _42
REMARK   16  A    between atoms: _42  and  _43
REMARK   17  A    between atoms: _42  and  _45
REMARK   18  A    between atoms: _45  and  _46
REMARK   19  A    between atoms: _51  and  _53
REMARK   20  A    between atoms: _53  and  _54
REMARK   21  A    between atoms: _57  and  _59
REMARK   22  A    between atoms: _59  and  _60
REMARK   23  A    between atoms: _59  and  _62
REMARK   24  A    between atoms: _62  and  _63
REMARK   25  A    between atoms: _69  and  _71
REMARK   26  A    between atoms: _71  and  _72
REMARK   27  A    between atoms: _71  and  _74
REMARK   28  A    between atoms: _74  and  _75
REMARK   29  A    between atoms: _85  and  _87
REMARK   30  A    between atoms: _87  and  _88
REMARK   31  A    between atoms: _87  and  _90
REMARK   32  A    between atoms: _93  and  _95
REMARK   33  A    between atoms: _95  and  _96
REMARK   34  A    between atoms: _95  and  _98
REMARK   35  A    between atoms: _98  and  _99
REMARK   36  A    between atoms: _104  and  _105
REMARK   37  A    between atoms: _107  and  _109
REMARK   38  A    between atoms: _109  and  _110
REMARK   39  A    between atoms: _109  and  _112
REMARK   40  A    between atoms: _112  and  _113
REMARK   41  A    between atoms: _116  and  _118
REMARK   42  A    between atoms: _118  and  _119
REMARK   43  A    between atoms: _118  and  _121
REMARK   44  A    between atoms: _121  and  _122
REMARK   45  A    between atoms: _128  and  _130
REMARK   46  A    between atoms: _130  and  _131
REMARK   47  A    between atoms: _130  and  _133
REMARK   48  A    between atoms: _133  and  _134
REMARK   49  A    between atoms: _137  and  _139
REMARK   50  A    between atoms: _139  and  _140
REMARK   51  A    between atoms: _142  and  _144
REMARK   52  A    between atoms: _144  and  _145
REMARK   53  A    between atoms: _144  and  _147
REMARK   54  A    between atoms: _147  and  _148
REMARK   55  A    between atoms: _151  and  _153
REMARK   56  A    between atoms: _153  and  _154
REMARK   57  A    between atoms: _153  and  _156
REMARK   58  A    between atoms: _159  and  _161
REMARK   59  A    between atoms: _161  and  _162
REMARK   60  A    between atoms: _161  and  _164
REMARK   61  A    between atoms: _167  and  _169
REMARK   62  A    between atoms: _169  and  _170
REMARK   63  A    between atoms: _173  and  _175
REMARK   64  A    between atoms: _175  and  _176
REMARK   65  A    between atoms: _175  and  _178
REMARK   66  A    between atoms: _178  and  _179
REMARK   67  A    between atoms: _183  and  ZN_399
REMARK   68  A    between atoms: _184  and  _186
REMARK   69  A    between atoms: _186  and  _187
REMARK   70  A    between atoms: _186  and  _189
REMARK   71  A    between atoms: _189  and  _190
REMARK   72  A    between atoms: _190  and  _191
REMARK   73  A    between atoms: _194  and  _196
REMARK   74  A    between atoms: _196  and  _197
REMARK   75  A    between atoms: _196  and  _199
REMARK   76  A    between atoms: _199  and  _200
REMARK   77  A    between atoms: _203  and  _205
REMARK   78  A    between atoms: _205  and  _206
REMARK   79  A    between atoms: _205  and  _208
REMARK   80  A    between atoms: _208  and  _209
REMARK   81  A    between atoms: _213  and  ZN_399
REMARK   82  A    between atoms: _214  and  _216
REMARK   83  A    between atoms: _216  and  _217
REMARK   84  A    between atoms: _216  and  _219
REMARK   85  A    between atoms: _219  and  _220
REMARK   86  A    between atoms: _225  and  _226
REMARK   87  A    between atoms: _228  and  _230
REMARK   88  A    between atoms: _230  and  _231
REMARK   89  A    between atoms: _233  and  _235
REMARK   90  A    between atoms: _235  and  _236
REMARK   91  A    between atoms: _235  and  _238
REMARK   92  A    between atoms: _238  and  _239
REMARK   93  A    between atoms: _244  and  _246
REMARK   94  A    between atoms: _246  and  _247
REMARK   95  A    between atoms: _246  and  _249
REMARK   96  A    between atoms: _249  and  _250
REMARK   97  A    between atoms: _250  and  _251
REMARK   98  A    between atoms: _251  and  _252
REMARK   99  A    between atoms: _252  and  ZN_399
REMARK  100  A    between atoms: _254  and  _256
REMARK  101  A    between atoms: _256  and  _257
REMARK  102  A    between atoms: _256  and  _259
REMARK  103  A    between atoms: _259  and  _260
REMARK  104  A    between atoms: _262  and  _264
REMARK  105  A    between atoms: _264  and  _265
REMARK  106  A    between atoms: _264  and  _267
REMARK  107  A    between atoms: _267  and  _268
REMARK  108  A    between atoms: _271  and  _273
REMARK  109  A    between atoms: _273  and  _274
REMARK  110  A    between atoms: _273  and  _276
REMARK  111  A    between atoms: _276  and  _277
REMARK  112  A    between atoms: _280  and  _282
REMARK  113  A    between atoms: _282  and  _283
REMARK  114  A    between atoms: _285  and  _287
REMARK  115  A    between atoms: _287  and  _288
REMARK  116  A    between atoms: _287  and  _290
REMARK  117  A    between atoms: _290  and  _291
REMARK  118  A    between atoms: _291  and  _292
REMARK  119  A    between atoms: _295  and  _297
REMARK  120  A    between atoms: _297  and  _298
REMARK  121  A    between atoms: _297  and  _300
REMARK  122  A    between atoms: _303  and  _305
REMARK  123  A    between atoms: _305  and  _306
REMARK  124  A    between atoms: _305  and  _308
REMARK  125  A    between atoms: _308  and  _309
REMARK  126  A    between atoms: _314  and  _315
REMARK  127  A    between atoms: _317  and  _319
REMARK  128  A    between atoms: _319  and  _320
REMARK  129  A    between atoms: _319  and  _322
REMARK  130  A    between atoms: _322  and  _323
REMARK  131  A    between atoms: _326  and  _328
REMARK  132  A    between atoms: _328  and  _329
REMARK  133  A    between atoms: _328  and  _331
REMARK  134  A    between atoms: _331  and  _332
REMARK  135  A    between atoms: _332  and  _333
REMARK  136  A    between atoms: _333  and  _334
REMARK  137  A    between atoms: _343  and  _345
REMARK  138  A    between atoms: _345  and  _346
REMARK  139  A    between atoms: _345  and  _348
REMARK  140  A    between atoms: _348  and  _349
REMARK  141  A    between atoms: _352  and  _354
REMARK  142  A    between atoms: _354  and  _355
REMARK  143  A    between atoms: _354  and  _357
REMARK  144  A    between atoms: _357  and  _358
REMARK  145  A    between atoms: _363  and  _365
REMARK  146  A    between atoms: _365  and  _366
REMARK  147  A    between atoms: _365  and  _368
REMARK  148  A    between atoms: _371  and  _373
REMARK  149  A    between atoms: _373  and  _374
REMARK  150  A    between atoms: _373  and  _376
REMARK  151  A    between atoms: _376  and  _377
REMARK  152  A    between atoms: _382  and  _384
REMARK  153  A    between atoms: _384  and  _385
REMARK  154  A    between atoms: _384  and  _387
REMARK  155  A    between atoms: _387  and  _388
REMARK  156  A    between atoms: _391  and  _393
REMARK  157  A    between atoms: _393  and  _394
REMARK  158  A    between atoms: _393  and  _396
REMARK  159  A    between atoms: _396  and  _397
REMARK                            x       y       z     vdW  Elec       q    Type
REMARK                         _______ _______ _______ _____ _____    ______ ____
ROOT
ATOM      1  O   HOH     1      58.056  12.809  -3.519  0.00  0.00    +0.000 OA
ENDROOT
TORSDOF 0
REMARK  Name = ../refined-set-2016/1tmn/1tmn_pocket.pdb
REMARK  159 active torsions:
REMARK  status: ('A' for Active; 'I' for Inactive)
REMARK    1  A    between atoms: _1  and  _3
REMARK    2  A    between atoms: _3  and  _4
REMARK    3  A    between atoms: _3  and  _6
REMARK    4  A    between atoms: _6  and  _7
REMARK    5  A    between atoms: _12  and  _13
REMARK    6  A    between atoms: _15  and  _17
REMARK    7  A    between atoms: _17  and  _18
REMARK    8  A    between atoms: _17  and  _20
REMARK    9  A    between atoms: _20  and  _21
REMARK   10  A    between atoms: _26  and  _27
REMARK   11  A    between atoms: _29  and  _31
REMARK   12  A    between atoms: _31  and  _32
REMARK   13  A    between atoms: _31  and  _34
REMARK   14  A    between atoms: _34  and  _35
REMARK   15  A    between atoms: _40  and  _42
REMARK   16  A    between atoms: _42  and  _43
REMARK   17  A    between atoms: _42  and  _45
REMARK   18  A    between atoms: _45  and  _46
REMARK   19  A    between atoms: _51  and  _53
REMARK   20  A    between atoms: _53  and  _54
REMARK   21  A    between atoms: _57  and  _59
REMARK   22  A    between atoms: _59  and  _60
REMARK   23  A    between atoms: _59  and  _62
REMARK   24  A    between atoms: _62  and  _63
REMARK   25  A    between atoms: _69  and  _71
REMARK   26  A    between atoms: _71  and  _72
REMARK   27  A    between atoms: _71  and  _74
REMARK   28  A    between atoms: _74  and  _75
REMARK   29  A    between atoms: _85  and  _87
REMARK   30  A    between atoms: _87  and  _88
REMARK   31  A    between atoms: _87  and  _90
REMARK   32  A    between atoms: _93  and  _95
REMARK   33  A    between atoms: _95  and  _96
REMARK   34  A    between atoms: _95  and  _98
REMARK   35  A    between atoms: _98  and  _99
REMARK   36  A    between atoms: _104  and  _105
REMARK   37  A    between atoms: _107  and  _109
REMARK   38  A    between atoms: _109  and  _110
REMARK   39  A    between atoms: _109  and  _112
REMARK   40  A    between atoms: _112  and  _113
REMARK   41  A    between atoms: _116  and  _118
REMARK   42  A    between atoms: _118  and  _119
REMARK   43  A    between atoms: _118  and  _121
REMARK   44  A    between atoms: _121  and  _122
REMARK   45  A    between atoms: _128  and  _130
REMARK   46  A    between atoms: _130  and  _131
REMARK   47  A    between atoms: _130  and  _133
REMARK   48  A    between atoms: _133  and  _134
REMARK   49  A    between atoms: _137  and  _139
REMARK   50  A    between atoms: _139  and  _140
REMARK   51  A    between atoms: _142  and  _144
REMARK   52  A    between atoms: _144  and  _145
REMARK   53  A    between atoms: _144  and  _147
REMARK   54  A    between atoms: _147  and  _148
REMARK   55  A    between atoms: _151  and  _153
REMARK   56  A    between atoms: _153  and  _154
REMARK   57  A    between atoms: _153  and  _156
REMARK   58  A    between atoms: _159  and  _161
REMARK   59  A    between atoms: _161  and  _162
REMARK   60  A    between atoms: _161  and  _164
REMARK   61  A    between atoms: _167  and  _169
REMARK   62  A    between atoms: _169  and  _170
REMARK   63  A    between atoms: _173  and  _175
REMARK   64  A    between atoms: _175  and  _176
REMARK   65  A    between atoms: _175  and  _178
REMARK   66  A    between atoms: _178  and  _179
REMARK   67  A    between atoms: _183  and  ZN_399
REMARK   68  A    between atoms: _184  and  _186
REMARK   69  A    between atoms: _186  and  _187
REMARK   70  A    between atoms: _186  and  _189
REMARK   71  A    between atoms: _189  and  _190
REMARK   72  A    between atoms: _190  and  _191
REMARK   73  A    between atoms: _194  and  _196
REMARK   74  A    between atoms: _196  and  _197
REMARK   75  A    between atoms: _196  and  _199
REMARK   76  A    between atoms: _199  and  _200
REMARK   77  A    between atoms: _203  and  _205
REMARK   78  A    between atoms: _205  and  _206
REMARK   79  A    between atoms: _205  and  _208
REMARK   80  A    between atoms: _208  and  _209
REMARK   81  A    between atoms: _213  and  ZN_399
REMARK   82  A    between atoms: _214  and  _216
REMARK   83  A    between atoms: _216  and  _217
REMARK   84  A    between atoms: _216  and  _219
REMARK   85  A    between atoms: _219  and  _220
REMARK   86  A    between atoms: _225  and  _226
REMARK   87  A    between atoms: _228  and  _230
REMARK   88  A    between atoms: _230  and  _231
REMARK   89  A    between atoms: _233  and  _235
REMARK   90  A    between atoms: _235  and  _236
REMARK   91  A    between atoms: _235  and  _238
REMARK   92  A    between atoms: _238  and  _239
REMARK   93  A    between atoms: _244  and  _246
REMARK   94  A    between atoms: _246  and  _247
REMARK   95  A    between atoms: _246  and  _249
REMARK   96  A    between atoms: _249  and  _250
REMARK   97  A    between atoms: _250  and  _251
REMARK   98  A    between atoms: _251  and  _252
REMARK   99  A    between atoms: _252  and  ZN_399
REMARK  100  A    between atoms: _254  and  _256
REMARK  101  A    between atoms: _256  and  _257
REMARK  102  A    between atoms: _256  and  _259
REMARK  103  A    between atoms: _259  and  _260
REMARK  104  A    between atoms: _262  and  _264
REMARK  105  A    between atoms: _264  and  _265
REMARK  106  A    between atoms: _264  and  _267
REMARK  107  A    between atoms: _267  and  _268
REMARK  108  A    between atoms: _271  and  _273
REMARK  109  A    between atoms: _273  and  _274
REMARK  110  A    between atoms: _273  and  _276
REMARK  111  A    between atoms: _276  and  _277
REMARK  112  A    between atoms: _280  and  _282
REMARK  113  A    between atoms: _282  and  _283
REMARK  114  A    between atoms: _285  and  _287
REMARK  115  A    between atoms: _287  and  _288
REMARK  116  A    between atoms: _287  and  _290
REMARK  117  A    between atoms: _290  and  _291
REMARK  118  A    between atoms: _291  and  _292
REMARK  119  A    between atoms: _295  and  _297
REMARK  120  A    between atoms: _297  and  _298
REMARK  121  A    between atoms: _297  and  _300
REMARK  122  A    between atoms: _303  and  _305
REMARK  123  A    between atoms: _305  and  _306
REMARK  124  A    between atoms: _305  and  _308
REMARK  125  A    between atoms: _308  and  _309
REMARK  126  A    between atoms: _314  and  _315
REMARK  127  A    between atoms: _317  and  _319
REMARK  128  A    between atoms: _319  and  _320
REMARK  129  A    between atoms: _319  and  _322
REMARK  130  A    between atoms: _322  and  _323
REMARK  131  A    between atoms: _326  and  _328
REMARK  132  A    between atoms: _328  and  _329
REMARK  133  A    between atoms: _328  and  _331
REMARK  134  A    between atoms: _331  and  _332
REMARK  135  A    between atoms: _332  and  _333
REMARK  136  A    between atoms: _333  and  _334
REMARK  137  A    between atoms: _343  and  _345
REMARK  138  A    between atoms: _345  and  _346
REMARK  139  A    between atoms: _345  and  _348
REMARK  140  A    between atoms: _348  and  _349
REMARK  141  A    between atoms: _352  and  _354
REMARK  142  A    between atoms: _354  and  _355
REMARK  143  A    between atoms: _354  and  _357
REMARK  144  A    between atoms: _357  and  _358
REMARK  145  A    between atoms: _363  and  _365
REMARK  146  A    between atoms: _365  and  _366
REMARK  147  A    between atoms: _365  and  _368
REMARK  148  A    between atoms: _371  and  _373
REMARK  149  A    between atoms: _373  and  _374
REMARK  150  A    between atoms: _373  and  _376
REMARK  151  A    between atoms: _376  and  _377
REMARK  152  A    between atoms: _382  and  _384
REMARK  153  A    between atoms: _384  and  _385
REMARK  154  A    between atoms: _384  and  _387
REMARK  155  A    between atoms: _387  and  _388
REMARK  156  A    between atoms: _391  and  _393
REMARK  157  A    between atoms: _393  and  _394
REMARK  158  A    between atoms: _393  and  _396
REMARK  159  A    between atoms: _396  and  _397
REMARK                            x       y       z     vdW  Elec       q    Type
REMARK                         _______ _______ _______ _____ _____    ______ ____
ROOT
ATOM      1  O   HOH     1      45.997  20.315 -12.492  0.00  0.00    +0.000 OA
ENDROOT
TORSDOF 0
REMARK  Name = ../refined-set-2016/1tmn/1tmn_pocket.pdb
REMARK  159 active torsions:
REMARK  status: ('A' for Active; 'I' for Inactive)
REMARK    1  A    between atoms: _1  and  _3
REMARK    2  A    between atoms: _3  and  _4
REMARK    3  A    between atoms: _3  and  _6
REMARK    4  A    between atoms: _6  and  _7
REMARK    5  A    between atoms: _12  and  _13
REMARK    6  A    between atoms: _15  and  _17
REMARK    7  A    between atoms: _17  and  _18
REMARK    8  A    between atoms: _17  and  _20
REMARK    9  A    between atoms: _20  and  _21
REMARK   10  A    between atoms: _26  and  _27
REMARK   11  A    between atoms: _29  and  _31
REMARK   12  A    between atoms: _31  and  _32
REMARK   13  A    between atoms: _31  and  _34
REMARK   14  A    between atoms: _34  and  _35
REMARK   15  A    between atoms: _40  and  _42
REMARK   16  A    between atoms: _42  and  _43
REMARK   17  A    between atoms: _42  and  _45
REMARK   18  A    between atoms: _45  and  _46
REMARK   19  A    between atoms: _51  and  _53
REMARK   20  A    between atoms: _53  and  _54
REMARK   21  A    between atoms: _57  and  _59
REMARK   22  A    between atoms: _59  and  _60
REMARK   23  A    between atoms: _59  and  _62
REMARK   24  A    between atoms: _62  and  _63
REMARK   25  A    between atoms: _69  and  _71
REMARK   26  A    between atoms: _71  and  _72
REMARK   27  A    between atoms: _71  and  _74
REMARK   28  A    between atoms: _74  and  _75
REMARK   29  A    between atoms: _85  and  _87
REMARK   30  A    between atoms: _87  and  _88
REMARK   31  A    between atoms: _87  and  _90
REMARK   32  A    between atoms: _93  and  _95
REMARK   33  A    between atoms: _95  and  _96
REMARK   34  A    between atoms: _95  and  _98
REMARK   35  A    between atoms: _98  and  _99
REMARK   36  A    between atoms: _104  and  _105
REMARK   37  A    between atoms: _107  and  _109
REMARK   38  A    between atoms: _109  and  _110
REMARK   39  A    between atoms: _109  and  _112
REMARK   40  A    between atoms: _112  and  _113
REMARK   41  A    between atoms: _116  and  _118
REMARK   42  A    between atoms: _118  and  _119
REMARK   43  A    between atoms: _118  and  _121
REMARK   44  A    between atoms: _121  and  _122
REMARK   45  A    between atoms: _128  and  _130
REMARK   46  A    between atoms: _130  and  _131
REMARK   47  A    between atoms: _130  and  _133
REMARK   48  A    between atoms: _133  and  _134
REMARK   49  A    between atoms: _137  and  _139
REMARK   50  A    between atoms: _139  and  _140
REMARK   51  A    between atoms: _142  and  _144
REMARK   52  A    between atoms: _144  and  _145
REMARK   53  A    between atoms: _144  and  _147
REMARK   54  A    between atoms: _147  and  _148
REMARK   55  A    between atoms: _151  and  _153
REMARK   56  A    between atoms: _153  and  _154
REMARK   57  A    between atoms: _153  and  _156
REMARK   58  A    between atoms: _159  and  _161
REMARK   59  A    between atoms: _161  and  _162
REMARK   60  A    between atoms: _161  and  _164
REMARK   61  A    between atoms: _167  and  _169
REMARK   62  A    between atoms: _169  and  _170
REMARK   63  A    between atoms: _173  and  _175
REMARK   64  A    between atoms: _175  and  _176
REMARK   65  A    between atoms: _175  and  _178
REMARK   66  A    between atoms: _178  and  _179
REMARK   67  A    between atoms: _183  and  ZN_399
REMARK   68  A    between atoms: _184  and  _186
REMARK   69  A    between atoms: _186  and  _187
REMARK   70  A    between atoms: _186  and  _189
REMARK   71  A    between atoms: _189  and  _190
REMARK   72  A    between atoms: _190  and  _191
REMARK   73  A    between atoms: _194  and  _196
REMARK   74  A    between atoms: _196  and  _197
REMARK   75  A    between atoms: _196  and  _199
REMARK   76  A    between atoms: _199  and  _200
REMARK   77  A    between atoms: _203  and  _205
REMARK   78  A    between atoms: _205  and  _206
REMARK   79  A    between atoms: _205  and  _208
REMARK   80  A    between atoms: _208  and  _209
REMARK   81  A    between atoms: _213  and  ZN_399
REMARK   82  A    between atoms: _214  and  _216
REMARK   83  A    between atoms: _216  and  _217
REMARK   84  A    between atoms: _216  and  _219
REMARK   85  A    between atoms: _219  and  _220
REMARK   86  A    between atoms: _225  and  _226
REMARK   87  A    between atoms: _228  and  _230
REMARK   88  A    between atoms: _230  and  _231
REMARK   89  A    between atoms: _233  and  _235
REMARK   90  A    between atoms: _235  and  _236
REMARK   91  A    between atoms: _235  and  _238
REMARK   92  A    between atoms: _238  and  _239
REMARK   93  A    between atoms: _244  and  _246
REMARK   94  A    between atoms: _246  and  _247
REMARK   95  A    between atoms: _246  and  _249
REMARK   96  A    between atoms: _249  and  _250
REMARK   97  A    between atoms: _250  and  _251
REMARK   98  A    between atoms: _251  and  _252
REMARK   99  A    between atoms: _252  and  ZN_399
REMARK  100  A    between atoms: _254  and  _256
REMARK  101  A    between atoms: _256  and  _257
REMARK  102  A    between atoms: _256  and  _259
REMARK  103  A    between atoms: _259  and  _260
REMARK  104  A    between atoms: _262  and  _264
REMARK  105  A    between atoms: _264  and  _265
REMARK  106  A    between atoms: _264  and  _267
REMARK  107  A    between atoms: _267  and  _268
REMARK  108  A    between atoms: _271  and  _273
REMARK  109  A    between atoms: _273  and  _274
REMARK  110  A    between atoms: _273  and  _276
REMARK  111  A    between atoms: _276  and  _277
REMARK  112  A    between atoms: _280  and  _282
REMARK  113  A    between atoms: _282  and  _283
REMARK  114  A    between atoms: _285  and  _287
REMARK  115  A    between atoms: _287  and  _288
REMARK  116  A    between atoms: _287  and  _290
REMARK  117  A    between atoms: _290  and  _291
REMARK  118  A    between atoms: _291  and  _292
REMARK  119  A    between atoms: _295  and  _297
REMARK  120  A    between atoms: _297  and  _298
REMARK  121  A    between atoms: _297  and  _300
REMARK  122  A    between atoms: _303  and  _305
REMARK  123  A    between atoms: _305  and  _306
REMARK  124  A    between atoms: _305  and  _308
REMARK  125  A    between atoms: _308  and  _309
REMARK  126  A    between atoms: _314  and  _315
REMARK  127  A    between atoms: _317  and  _319
REMARK  128  A    between atoms: _319  and  _320
REMARK  129  A    between atoms: _319  and  _322
REMARK  130  A    between atoms: _322  and  _323
REMARK  131  A    between atoms: _326  and  _328
REMARK  132  A    between atoms: _328  and  _329
REMARK  133  A    between atoms: _328  and  _331
REMARK  134  A    between atoms: _331  and  _332
REMARK  135  A    between atoms: _332  and  _333
REMARK  136  A    between atoms: _333  and  _334
REMARK  137  A    between atoms: _343  and  _345
REMARK  138  A    between atoms: _345  and  _346
REMARK  139  A    between atoms: _345  and  _348
REMARK  140  A    between atoms: _348  and  _349
REMARK  141  A    between atoms: _352  and  _354
REMARK  142  A    between atoms: _354  and  _355
REMARK  143  A    between atoms: _354  and  _357
REMARK  144  A    between atoms: _357  and  _358
REMARK  145  A    between atoms: _363  and  _365
REMARK  146  A    between atoms: _365  and  _366
REMARK  147  A    between atoms: _365  and  _368
REMARK  148  A    between atoms: _371  and  _373
REMARK  149  A    between atoms: _373  and  _374
REMARK  150  A    between atoms: _373  and  _376
REMARK  151  A    between atoms: _376  and  _377
REMARK  152  A    between atoms: _382  and  _384
REMARK  153  A    between atoms: _384  and  _385
REMARK  154  A    between atoms: _384  and  _387
REMARK  155  A    between atoms: _387  and  _388
REMARK  156  A    between atoms: _391  and  _393
REMARK  157  A    between atoms: _393  and  _394
REMARK  158  A    between atoms: _393  and  _396
REMARK  159  A    between atoms: _396  and  _397
REMARK                            x       y       z     vdW  Elec       q    Type
REMARK                         _______ _______ _______ _____ _____    ______ ____
ROOT
ATOM      1  O   HOH     1      55.878   7.054  -8.004  0.00  0.00    +0.000 OA
ENDROOT
TORSDOF 0
REMARK  Name = ../refined-set-2016/1tmn/1tmn_pocket.pdb
REMARK  159 active torsions:
REMARK  status: ('A' for Active; 'I' for Inactive)
REMARK    1  A    between atoms: _1  and  _3
REMARK    2  A    between atoms: _3  and  _4
REMARK    3  A    between atoms: _3  and  _6
REMARK    4  A    between atoms: _6  and  _7
REMARK    5  A    between atoms: _12  and  _13
REMARK    6  A    between atoms: _15  and  _17
REMARK    7  A    between atoms: _17  and  _18
REMARK    8  A    between atoms: _17  and  _20
REMARK    9  A    between atoms: _20  and  _21
REMARK   10  A    between atoms: _26  and  _27
REMARK   11  A    between atoms: _29  and  _31
REMARK   12  A    between atoms: _31  and  _32
REMARK   13  A    between atoms: _31  and  _34
REMARK   14  A    between atoms: _34  and  _35
REMARK   15  A    between atoms: _40  and  _42
REMARK   16  A    between atoms: _42  and  _43
REMARK   17  A    between atoms: _42  and  _45
REMARK   18  A    between atoms: _45  and  _46
REMARK   19  A    between atoms: _51  and  _53
REMARK   20  A    between atoms: _53  and  _54
REMARK   21  A    between atoms: _57  and  _59
REMARK   22  A    between atoms: _59  and  _60
REMARK   23  A    between atoms: _59  and  _62
REMARK   24  A    between atoms: _62  and  _63
REMARK   25  A    between atoms: _69  and  _71
REMARK   26  A    between atoms: _71  and  _72
REMARK   27  A    between atoms: _71  and  _74
REMARK   28  A    between atoms: _74  and  _75
REMARK   29  A    between atoms: _85  and  _87
REMARK   30  A    between atoms: _87  and  _88
REMARK   31  A    between atoms: _87  and  _90
REMARK   32  A    between atoms: _93  and  _95
REMARK   33  A    between atoms: _95  and  _96
REMARK   34  A    between atoms: _95  and  _98
REMARK   35  A    between atoms: _98  and  _99
REMARK   36  A    between atoms: _104  and  _105
REMARK   37  A    between atoms: _107  and  _109
REMARK   38  A    between atoms: _109  and  _110
REMARK   39  A    between atoms: _109  and  _112
REMARK   40  A    between atoms: _112  and  _113
REMARK   41  A    between atoms: _116  and  _118
REMARK   42  A    between atoms: _118  and  _119
REMARK   43  A    between atoms: _118  and  _121
REMARK   44  A    between atoms: _121  and  _122
REMARK   45  A    between atoms: _128  and  _130
REMARK   46  A    between atoms: _130  and  _131
REMARK   47  A    between atoms: _130  and  _133
REMARK   48  A    between atoms: _133  and  _134
REMARK   49  A    between atoms: _137  and  _139
REMARK   50  A    between atoms: _139  and  _140
REMARK   51  A    between atoms: _142  and  _144
REMARK   52  A    between atoms: _144  and  _145
REMARK   53  A    between atoms: _144  and  _147
REMARK   54  A    between atoms: _147  and  _148
REMARK   55  A    between atoms: _151  and  _153
REMARK   56  A    between atoms: _153  and  _154
REMARK   57  A    between atoms: _153  and  _156
REMARK   58  A    between atoms: _159  and  _161
REMARK   59  A    between atoms: _161  and  _162
REMARK   60  A    between atoms: _161  and  _164
REMARK   61  A    between atoms: _167  and  _169
REMARK   62  A    between atoms: _169  and  _170
REMARK   63  A    between atoms: _173  and  _175
REMARK   64  A    between atoms: _175  and  _176
REMARK   65  A    between atoms: _175  and  _178
REMARK   66  A    between atoms: _178  and  _179
REMARK   67  A    between atoms: _183  and  ZN_399
REMARK   68  A    between atoms: _184  and  _186
REMARK   69  A    between atoms: _186  and  _187
REMARK   70  A    between atoms: _186  and  _189
REMARK   71  A    between atoms: _189  and  _190
REMARK   72  A    between atoms: _190  and  _191
REMARK   73  A    between atoms: _194  and  _196
REMARK   74  A    between atoms: _196  and  _197
REMARK   75  A    between atoms: _196  and  _199
REMARK   76  A    between atoms: _199  and  _200
REMARK   77  A    between atoms: _203  and  _205
REMARK   78  A    between atoms: _205  and  _206
REMARK   79  A    between atoms: _205  and  _208
REMARK   80  A    between atoms: _208  and  _209
REMARK   81  A    between atoms: _213  and  ZN_399
REMARK   82  A    between atoms: _214  and  _216
REMARK   83  A    between atoms: _216  and  _217
REMARK   84  A    between atoms: _216  and  _219
REMARK   85  A    between atoms: _219  and  _220
REMARK   86  A    between atoms: _225  and  _226
REMARK   87  A    between atoms: _228  and  _230
REMARK   88  A    between atoms: _230  and  _231
REMARK   89  A    between atoms: _233  and  _235
REMARK   90  A    between atoms: _235  and  _236
REMARK   91  A    between atoms: _235  and  _238
REMARK   92  A    between atoms: _238  and  _239
REMARK   93  A    between atoms: _244  and  _246
REMARK   94  A    between atoms: _246  and  _247
REMARK   95  A    between atoms: _246  and  _249
REMARK   96  A    between atoms: _249  and  _250
REMARK   97  A    between atoms: _250  and  _251
REMARK   98  A    between atoms: _251  and  _252
REMARK   99  A    between atoms: _252  and  ZN_399
REMARK  100  A    between atoms: _254  and  _256
REMARK  101  A    between atoms: _256  and  _257
REMARK  102  A    between atoms: _256  and  _259
REMARK  103  A    between atoms: _259  and  _260
REMARK  104  A    between atoms: _262  and  _264
REMARK  105  A    between atoms: _264  and  _265
REMARK  106  A    between atoms: _264  and  _267
REMARK  107  A    between atoms: _267  and  _268
REMARK  108  A    between atoms: _271  and  _273
REMARK  109  A    between atoms: _273  and  _274
REMARK  110  A    between atoms: _273  and  _276
REMARK  111  A    between atoms: _276  and  _277
REMARK  112  A    between atoms: _280  and  _282
REMARK  113  A    between atoms: _282  and  _283
REMARK  114  A    between atoms: _285  and  _287
REMARK  115  A    between atoms: _287  and  _288
REMARK  116  A    between atoms: _287  and  _290
REMARK  117  A    between atoms: _290  and  _291
REMARK  118  A    between atoms: _291  and  _292
REMARK  119  A    between atoms: _295  and  _297
REMARK  120  A    between atoms: _297  and  _298
REMARK  121  A    between atoms: _297  and  _300
REMARK  122  A    between atoms: _303  and  _305
REMARK  123  A    between atoms: _305  and  _306
REMARK  124  A    between atoms: _305  and  _308
REMARK  125  A    between atoms: _308  and  _309
REMARK  126  A    between atoms: _314  and  _315
REMARK  127  A    between atoms: _317  and  _319
REMARK  128  A    between atoms: _319  and  _320
REMARK  129  A    between atoms: _319  and  _322
REMARK  130  A    between atoms: _322  and  _323
REMARK  131  A    between atoms: _326  and  _328
REMARK  132  A    between atoms: _328  and  _329
REMARK  133  A    between atoms: _328  and  _331
REMARK  134  A    between atoms: _331  and  _332
REMARK  135  A    between atoms: _332  and  _333
REMARK  136  A    between atoms: _333  and  _334
REMARK  137  A    between atoms: _343  and  _345
REMARK  138  A    between atoms: _345  and  _346
REMARK  139  A    between atoms: _345  and  _348
REMARK  140  A    between atoms: _348  and  _349
REMARK  141  A    between atoms: _352  and  _354
REMARK  142  A    between atoms: _354  and  _355
REMARK  143  A    between atoms: _354  and  _357
REMARK  144  A    between atoms: _357  and  _358
REMARK  145  A    between atoms: _363  and  _365
REMARK  146  A    between atoms: _365  and  _366
REMARK  147  A    between atoms: _365  and  _368
REMARK  148  A    between atoms: _371  and  _373
REMARK  149  A    between atoms: _373  and  _374
REMARK  150  A    between atoms: _373  and  _376
REMARK  151  A    between atoms: _376  and  _377
REMARK  152  A    between atoms: _382  and  _384
REMARK  153  A    between atoms: _384  and  _385
REMARK  154  A    between atoms: _384  and  _387
REMARK  155  A    between atoms: _387  and  _388
REMARK  156  A    between atoms: _391  and  _393
REMARK  157  A    between atoms: _393  and  _394
REMARK  158  A    between atoms: _393  and  _396
REMARK  159  A    between atoms: _396  and  _397
REMARK                            x       y       z     vdW  Elec       q    Type
REMARK                         _______ _______ _______ _____ _____    ______ ____
ROOT
ATOM      1  O   HOH     1      59.490   9.459   2.956  0.00  0.00    +0.000 OA
ENDROOT
TORSDOF 0
