REMARK  Name = ../refined-set-2016/1tlp/1tlp_pocket.pdb
REMARK  151 active torsions:
REMARK  status: ('A' for Active; 'I' for Inactive)
REMARK    1  A    between atoms: _1  and  _3
REMARK    2  A    between atoms: _3  and  _4
REMARK    3  A    between atoms: _3  and  _6
REMARK    4  A    between atoms: _6  and  _7
REMARK    5  A    between atoms: _12  and  _13
REMARK    6  A    between atoms: _15  and  _17
REMARK    7  A    between atoms: _17  and  _18
REMARK    8  A    between atoms: _17  and  _20
REMARK    9  A    between atoms: _20  and  _21
REMARK   10  A    between atoms: _26  and  _28
REMARK   11  A    between atoms: _28  and  _29
REMARK   12  A    between atoms: _28  and  _31
REMARK   13  A    between atoms: _31  and  _32
REMARK   14  A    between atoms: _37  and  _39
REMARK   15  A    between atoms: _39  and  _40
REMARK   16  A    between atoms: _43  and  _45
REMARK   17  A    between atoms: _45  and  _46
REMARK   18  A    between atoms: _45  and  _48
REMARK   19  A    between atoms: _48  and  _49
REMARK   20  A    between atoms: _55  and  _57
REMARK   21  A    between atoms: _57  and  _58
REMARK   22  A    between atoms: _57  and  _60
REMARK   23  A    between atoms: _60  and  _61
REMARK   24  A    between atoms: _71  and  _73
REMARK   25  A    between atoms: _73  and  _74
REMARK   26  A    between atoms: _73  and  _76
REMARK   27  A    between atoms: _76  and  _77
REMARK   28  A    between atoms: _82  and  _84
REMARK   29  A    between atoms: _84  and  _85
REMARK   30  A    between atoms: _84  and  _87
REMARK   31  A    between atoms: _90  and  _92
REMARK   32  A    between atoms: _92  and  _93
REMARK   33  A    between atoms: _92  and  _95
REMARK   34  A    between atoms: _95  and  _96
REMARK   35  A    between atoms: _101  and  _102
REMARK   36  A    between atoms: _104  and  _106
REMARK   37  A    between atoms: _106  and  _107
REMARK   38  A    between atoms: _109  and  _111
REMARK   39  A    between atoms: _111  and  _112
REMARK   40  A    between atoms: _111  and  _114
REMARK   41  A    between atoms: _114  and  _115
REMARK   42  A    between atoms: _118  and  _120
REMARK   43  A    between atoms: _120  and  _121
REMARK   44  A    between atoms: _120  and  _123
REMARK   45  A    between atoms: _123  and  _124
REMARK   46  A    between atoms: _130  and  _132
REMARK   47  A    between atoms: _132  and  _133
REMARK   48  A    between atoms: _132  and  _135
REMARK   49  A    between atoms: _135  and  _136
REMARK   50  A    between atoms: _139  and  _141
REMARK   51  A    between atoms: _141  and  _142
REMARK   52  A    between atoms: _141  and  _144
REMARK   53  A    between atoms: _144  and  _145
REMARK   54  A    between atoms: _148  and  _150
REMARK   55  A    between atoms: _150  and  _151
REMARK   56  A    between atoms: _150  and  _153
REMARK   57  A    between atoms: _156  and  _158
REMARK   58  A    between atoms: _158  and  _159
REMARK   59  A    between atoms: _158  and  _161
REMARK   60  A    between atoms: _164  and  _166
REMARK   61  A    between atoms: _166  and  _167
REMARK   62  A    between atoms: _166  and  _169
REMARK   63  A    between atoms: _169  and  _170
REMARK   64  A    between atoms: _174  and  ZN_380
REMARK   65  A    between atoms: _175  and  _177
REMARK   66  A    between atoms: _177  and  _178
REMARK   67  A    between atoms: _177  and  _180
REMARK   68  A    between atoms: _180  and  _181
REMARK   69  A    between atoms: _181  and  _182
REMARK   70  A    between atoms: _185  and  _187
REMARK   71  A    between atoms: _187  and  _188
REMARK   72  A    between atoms: _187  and  _190
REMARK   73  A    between atoms: _190  and  _191
REMARK   74  A    between atoms: _194  and  _196
REMARK   75  A    between atoms: _196  and  _197
REMARK   76  A    between atoms: _196  and  _199
REMARK   77  A    between atoms: _199  and  _200
REMARK   78  A    between atoms: _204  and  ZN_380
REMARK   79  A    between atoms: _205  and  _207
REMARK   80  A    between atoms: _207  and  _208
REMARK   81  A    between atoms: _207  and  _210
REMARK   82  A    between atoms: _210  and  _211
REMARK   83  A    between atoms: _216  and  _217
REMARK   84  A    between atoms: _219  and  _221
REMARK   85  A    between atoms: _221  and  _222
REMARK   86  A    between atoms: _224  and  _226
REMARK   87  A    between atoms: _226  and  _227
REMARK   88  A    between atoms: _226  and  _229
REMARK   89  A    between atoms: _229  and  _230
REMARK   90  A    between atoms: _235  and  _237
REMARK   91  A    between atoms: _237  and  _238
REMARK   92  A    between atoms: _237  and  _240
REMARK   93  A    between atoms: _240  and  _241
REMARK   94  A    between atoms: _241  and  _242
REMARK   95  A    between atoms: _242  and  _243
REMARK   96  A    between atoms: _243  and  ZN_380
REMARK   97  A    between atoms: _245  and  _247
REMARK   98  A    between atoms: _247  and  _248
REMARK   99  A    between atoms: _247  and  _250
REMARK  100  A    between atoms: _250  and  _251
REMARK  101  A    between atoms: _253  and  _255
REMARK  102  A    between atoms: _255  and  _256
REMARK  103  A    between atoms: _255  and  _258
REMARK  104  A    between atoms: _258  and  _259
REMARK  105  A    between atoms: _262  and  _264
REMARK  106  A    between atoms: _264  and  _265
REMARK  107  A    between atoms: _264  and  _267
REMARK  108  A    between atoms: _267  and  _268
REMARK  109  A    between atoms: _271  and  _273
REMARK  110  A    between atoms: _273  and  _274
REMARK  111  A    between atoms: _276  and  _278
REMARK  112  A    between atoms: _278  and  _279
REMARK  113  A    between atoms: _278  and  _281
REMARK  114  A    between atoms: _284  and  _286
REMARK  115  A    between atoms: _286  and  _287
REMARK  116  A    between atoms: _286  and  _289
REMARK  117  A    between atoms: _289  and  _290
REMARK  118  A    between atoms: _295  and  _296
REMARK  119  A    between atoms: _298  and  _300
REMARK  120  A    between atoms: _300  and  _301
REMARK  121  A    between atoms: _300  and  _303
REMARK  122  A    between atoms: _303  and  _304
REMARK  123  A    between atoms: _307  and  _309
REMARK  124  A    between atoms: _309  and  _310
REMARK  125  A    between atoms: _309  and  _312
REMARK  126  A    between atoms: _312  and  _313
REMARK  127  A    between atoms: _313  and  _314
REMARK  128  A    between atoms: _314  and  _315
REMARK  129  A    between atoms: _324  and  _326
REMARK  130  A    between atoms: _326  and  _327
REMARK  131  A    between atoms: _326  and  _329
REMARK  132  A    between atoms: _329  and  _330
REMARK  133  A    between atoms: _333  and  _335
REMARK  134  A    between atoms: _335  and  _336
REMARK  135  A    between atoms: _335  and  _338
REMARK  136  A    between atoms: _338  and  _339
REMARK  137  A    between atoms: _344  and  _346
REMARK  138  A    between atoms: _346  and  _347
REMARK  139  A    between atoms: _346  and  _349
REMARK  140  A    between atoms: _352  and  _354
REMARK  141  A    between atoms: _354  and  _355
REMARK  142  A    between atoms: _354  and  _357
REMARK  143  A    between atoms: _357  and  _358
REMARK  144  A    between atoms: _363  and  _365
REMARK  145  A    between atoms: _365  and  _366
REMARK  146  A    between atoms: _365  and  _368
REMARK  147  A    between atoms: _368  and  _369
REMARK  148  A    between atoms: _372  and  _374
REMARK  149  A    between atoms: _374  and  _375
REMARK  150  A    between atoms: _374  and  _377
REMARK  151  A    between atoms: _377  and  _378
REMARK                            x       y       z     vdW  Elec       q    Type
REMARK                         _______ _______ _______ _____ _____    ______ ____
ROOT
ATOM      1  C   ALA A   4      48.103  20.000  -3.367  0.00  0.00    +0.241 C 
ATOM      2  O   ALA A   4      48.914  19.174  -3.797  0.00  0.00    -0.273 OA
ATOM      3  N   PHE A   5      47.518  20.994  -4.079  0.00  0.00    -0.297 N 
ATOM      4  H   PHE A   5      46.798  21.561  -3.588  0.00  0.00    +0.150 HD
ENDROOT
BRANCH   1   5
ATOM      5  CA  ALA A   4      47.701  19.850  -1.917  0.00  0.00    +0.149 C 
ATOM      6  CB  ALA A   4      48.561  20.746  -1.004  0.00  0.00    +0.031 C 
BRANCH   5   9
ATOM      7  C   ASN A   3      47.258  17.584  -0.924  0.00  0.00    +0.241 C 
ATOM      8  O   ASN A   3      46.293  17.884  -0.202  0.00  0.00    -0.273 OA
ATOM      9  N   ALA A   4      47.964  18.449  -1.667  0.00  0.00    -0.297 N 
ATOM     10  H   ALA A   4      48.814  18.061  -2.124  0.00  0.00    +0.150 HD
BRANCH   7  11
ATOM     11  CA  ASN A   3      47.812  16.152  -0.898  0.00  0.00    +0.158 C 
BRANCH  11  13
ATOM     12  C   ASN A   2      47.482  14.189   0.466  0.00  0.00    +0.241 C 
ATOM     13  N   ASN A   3      47.087  15.379   0.074  0.00  0.00    -0.297 N 
ATOM     14  H   ASN A   3      46.217  15.777   0.482  0.00  0.00    +0.150 HD
ATOM     15  O   ASN A   2      48.451  13.675   0.015  0.00  0.00    -0.273 OA
BRANCH  12  16
ATOM     16  CA  ASN A   2      46.721  13.454   1.570  0.00  0.00    +0.158 C 
BRANCH  16  19
ATOM     17  C   TYR A   1      44.303  14.216   1.694  0.00  0.00    +0.239 C 
ATOM     18  O   TYR A   1      44.479  15.193   2.395  0.00  0.00    -0.274 OA
ATOM     19  N   ASN A   2      45.288  13.361   1.296  0.00  0.00    -0.297 N 
ATOM     20  H   ASN A   2      44.983  12.544   0.729  0.00  0.00    +0.150 HD
BRANCH  17  21
ATOM     21  CA  TYR A   1      42.863  13.880   1.320  0.00  0.00    +0.149 C 
BRANCH  21  22
ATOM     22  N   TYR A   1      42.123  13.711   2.516  0.00  0.00    -0.238 NA
ATOM     23  H   TYR A   1      41.561  14.506   2.882  0.00  0.00    +0.142 HD
ENDBRANCH  21  22
BRANCH  21  24
ATOM     24  CB  TYR A   1      42.220  15.003   0.478  0.00  0.00    +0.053 C 
BRANCH  24  25
ATOM     25  CG  TYR A   1      42.839  15.063  -0.898  0.00  0.00    -0.020 A 
ATOM     26  CD2 TYR A   1      43.600  16.181  -1.243  0.00  0.00    -0.001 A 
ATOM     27  CE2 TYR A   1      44.229  16.260  -2.500  0.00  0.00    +0.036 A 
ATOM     28  CZ  TYR A   1      44.061  15.238  -3.429  0.00  0.00    +0.134 A 
ATOM     29  CE1 TYR A   1      43.275  14.134  -3.107  0.00  0.00    +0.036 A 
ATOM     30  CD1 TYR A   1      42.648  14.038  -1.818  0.00  0.00    -0.001 A 
BRANCH  28  31
ATOM     31  OH  TYR A   1      44.644  15.292  -4.660  0.00  0.00    -0.506 OA
ATOM     32  HH  TYR A   1      44.408  14.478  -5.172  0.00  0.00    +0.292 HD
ENDBRANCH  28  31
ENDBRANCH  24  25
ENDBRANCH  21  24
ENDBRANCH  17  21
ENDBRANCH  16  19
BRANCH  16  33
ATOM     33  CB  ASN A   2      47.302  11.997   1.683  0.00  0.00    +0.114 C 
BRANCH  33  34
ATOM     34  CG  ASN A   2      46.976  11.335   3.028  0.00  0.00    +0.222 C 
ATOM     35  OD1 ASN A   2      47.047  11.954   4.076  0.00  0.00    -0.275 OA
ATOM     36  ND2 ASN A   2      46.732  10.060   3.018  0.00  0.00    -0.329 N 
ATOM     37 HD21 ASN A   2      46.593   9.550   3.914  0.00  0.00    +0.145 HD
ATOM     38 HD22 ASN A   2      46.675   9.549   2.114  0.00  0.00    +0.145 HD
ENDBRANCH  33  34
ENDBRANCH  16  33
ENDBRANCH  12  16
ENDBRANCH  11  13
BRANCH  11  39
ATOM     39  CB  ASN A   3      47.703  15.447  -2.261  0.00  0.00    +0.114 C 
BRANCH  39  40
ATOM     40  CG  ASN A   3      48.977  15.478  -3.092  0.00  0.00    +0.222 C 
ATOM     41  OD1 ASN A   3      49.691  16.470  -3.155  0.00  0.00    -0.275 OA
ATOM     42  ND2 ASN A   3      49.155  14.441  -3.854  0.00  0.00    -0.329 N 
ATOM     43 HD21 ASN A   3      48.525  13.618  -3.768  0.00  0.00    +0.145 HD
ATOM     44 HD22 ASN A   3      49.928  14.434  -4.550  0.00  0.00    +0.145 HD
ENDBRANCH  39  40
ENDBRANCH  11  39
ENDBRANCH   7  11
ENDBRANCH   5   9
ENDBRANCH   1   5
BRANCH   3  45
ATOM     45  CA  PHE A   5      47.794  21.341  -5.443  0.00  0.00    +0.153 C 
BRANCH  45  46
ATOM     46  C   PHE A   5      47.212  22.688  -5.874  0.00  0.00    +0.241 C 
ATOM     47  O   PHE A   5      46.321  23.278  -5.272  0.00  0.00    -0.273 OA
ATOM     48  N   TRP A   6      47.855  23.155  -6.926  0.00  0.00    -0.297 N 
ATOM     49  H   TRP A   6      48.688  22.610  -7.227  0.00  0.00    +0.150 HD
BRANCH  48  50
ATOM     50  CA  TRP A   6      47.554  24.314  -7.705  0.00  0.00    +0.153 C 
BRANCH  50  51
ATOM     51  C   TRP A   6      46.794  23.671  -8.844  0.00  0.00    +0.241 C 
ATOM     52  N   ASN A   7      45.556  24.061  -8.994  0.00  0.00    -0.298 N 
ATOM     53  H   ASN A   7      45.149  24.739  -8.318  0.00  0.00    +0.150 HD
ATOM     54  O   TRP A   6      47.289  22.793  -9.539  0.00  0.00    -0.273 OA
BRANCH  52  55
ATOM     55  CA  ASN A   7      44.750  23.573 -10.070  0.00  0.00    +0.146 C 
BRANCH  55  56
ATOM     56  C   ASN A   7      44.663  24.547 -11.287  0.00  0.00    +0.227 C 
ATOM     57  O   ASN A   7      43.689  24.425 -11.999  0.00  0.00    -0.286 OA
ENDBRANCH  55  56
BRANCH  55  58
ATOM     58  CB  ASN A   7      43.293  23.315  -9.638  0.00  0.00    +0.112 C 
BRANCH  58  59
ATOM     59  CG  ASN A   7      42.367  24.567  -9.426  0.00  0.00    +0.222 C 
ATOM     60  ND2 ASN A   7      41.088  24.372  -9.288  0.00  0.00    -0.329 N 
ATOM     61 HD21 ASN A   7      40.446  25.184  -9.184  0.00  0.00    +0.145 HD
ATOM     62 HD22 ASN A   7      40.707  23.404  -9.281  0.00  0.00    +0.145 HD
ATOM     63  OD1 ASN A   7      42.759  25.716  -9.427  0.00  0.00    -0.275 OA
ENDBRANCH  58  59
ENDBRANCH  55  58
ENDBRANCH  52  55
ENDBRANCH  50  51
BRANCH  50  64
ATOM     64  CB  TRP A   6      48.804  25.083  -8.234  0.00  0.00    +0.057 C 
BRANCH  64  65
ATOM     65  CG  TRP A   6      48.396  26.134  -9.206  0.00  0.00    -0.002 A 
ATOM     66  CD2 TRP A   6      47.816  27.459  -8.993  0.00  0.00    +0.013 A 
ATOM     67  CE3 TRP A   6      47.474  28.242  -7.856  0.00  0.00    +0.001 A 
ATOM     68  CZ3 TRP A   6      46.963  29.501  -8.026  0.00  0.00    +0.000 A 
ATOM     69  CH2 TRP A   6      46.782  30.029  -9.301  0.00  0.00    +0.001 A 
ATOM     70  CZ2 TRP A   6      47.114  29.302 -10.440  0.00  0.00    +0.017 A 
ATOM     71  CE2 TRP A   6      47.615  28.008 -10.271  0.00  0.00    +0.056 A 
ATOM     72  NE1 TRP A   6      48.044  27.069 -11.218  0.00  0.00    -0.352 N 
ATOM     73  HE1 TRP A   6      48.000  27.181 -12.251  0.00  0.00    +0.166 HD
ATOM     74  CD1 TRP A   6      48.526  25.991 -10.558  0.00  0.00    +0.068 A 
ENDBRANCH  64  65
ENDBRANCH  50  64
ENDBRANCH  48  50
ENDBRANCH  45  46
BRANCH  45  75
ATOM     75  CB  PHE A   5      47.288  20.244  -6.396  0.00  0.00    +0.055 C 
BRANCH  75  76
ATOM     76  CG  PHE A   5      45.812  19.980  -6.182  0.00  0.00    -0.020 A 
ATOM     77  CD2 PHE A   5      45.378  19.160  -5.155  0.00  0.00    -0.004 A 
ATOM     78  CE2 PHE A   5      44.020  18.916  -4.984  0.00  0.00    -0.000 A 
ATOM     79  CZ  PHE A   5      43.057  19.472  -5.873  0.00  0.00    -0.000 A 
ATOM     80  CE1 PHE A   5      43.534  20.296  -6.923  0.00  0.00    -0.000 A 
ATOM     81  CD1 PHE A   5      44.903  20.515  -7.090  0.00  0.00    -0.004 A 
ENDBRANCH  75  76
ENDBRANCH  45  75
ENDBRANCH   3  45
TORSDOF 27
REMARK  Name = ../refined-set-2016/1tlp/1tlp_pocket.pdb
REMARK  151 active torsions:
REMARK  status: ('A' for Active; 'I' for Inactive)
REMARK    1  A    between atoms: _1  and  _3
REMARK    2  A    between atoms: _3  and  _4
REMARK    3  A    between atoms: _3  and  _6
REMARK    4  A    between atoms: _6  and  _7
REMARK    5  A    between atoms: _12  and  _13
REMARK    6  A    between atoms: _15  and  _17
REMARK    7  A    between atoms: _17  and  _18
REMARK    8  A    between atoms: _17  and  _20
REMARK    9  A    between atoms: _20  and  _21
REMARK   10  A    between atoms: _26  and  _28
REMARK   11  A    between atoms: _28  and  _29
REMARK   12  A    between atoms: _28  and  _31
REMARK   13  A    between atoms: _31  and  _32
REMARK   14  A    between atoms: _37  and  _39
REMARK   15  A    between atoms: _39  and  _40
REMARK   16  A    between atoms: _43  and  _45
REMARK   17  A    between atoms: _45  and  _46
REMARK   18  A    between atoms: _45  and  _48
REMARK   19  A    between atoms: _48  and  _49
REMARK   20  A    between atoms: _55  and  _57
REMARK   21  A    between atoms: _57  and  _58
REMARK   22  A    between atoms: _57  and  _60
REMARK   23  A    between atoms: _60  and  _61
REMARK   24  A    between atoms: _71  and  _73
REMARK   25  A    between atoms: _73  and  _74
REMARK   26  A    between atoms: _73  and  _76
REMARK   27  A    between atoms: _76  and  _77
REMARK   28  A    between atoms: _82  and  _84
REMARK   29  A    between atoms: _84  and  _85
REMARK   30  A    between atoms: _84  and  _87
REMARK   31  A    between atoms: _90  and  _92
REMARK   32  A    between atoms: _92  and  _93
REMARK   33  A    between atoms: _92  and  _95
REMARK   34  A    between atoms: _95  and  _96
REMARK   35  A    between atoms: _101  and  _102
REMARK   36  A    between atoms: _104  and  _106
REMARK   37  A    between atoms: _106  and  _107
REMARK   38  A    between atoms: _109  and  _111
REMARK   39  A    between atoms: _111  and  _112
REMARK   40  A    between atoms: _111  and  _114
REMARK   41  A    between atoms: _114  and  _115
REMARK   42  A    between atoms: _118  and  _120
REMARK   43  A    between atoms: _120  and  _121
REMARK   44  A    between atoms: _120  and  _123
REMARK   45  A    between atoms: _123  and  _124
REMARK   46  A    between atoms: _130  and  _132
REMARK   47  A    between atoms: _132  and  _133
REMARK   48  A    between atoms: _132  and  _135
REMARK   49  A    between atoms: _135  and  _136
REMARK   50  A    between atoms: _139  and  _141
REMARK   51  A    between atoms: _141  and  _142
REMARK   52  A    between atoms: _141  and  _144
REMARK   53  A    between atoms: _144  and  _145
REMARK   54  A    between atoms: _148  and  _150
REMARK   55  A    between atoms: _150  and  _151
REMARK   56  A    between atoms: _150  and  _153
REMARK   57  A    between atoms: _156  and  _158
REMARK   58  A    between atoms: _158  and  _159
REMARK   59  A    between atoms: _158  and  _161
REMARK   60  A    between atoms: _164  and  _166
REMARK   61  A    between atoms: _166  and  _167
REMARK   62  A    between atoms: _166  and  _169
REMARK   63  A    between atoms: _169  and  _170
REMARK   64  A    between atoms: _174  and  ZN_380
REMARK   65  A    between atoms: _175  and  _177
REMARK   66  A    between atoms: _177  and  _178
REMARK   67  A    between atoms: _177  and  _180
REMARK   68  A    between atoms: _180  and  _181
REMARK   69  A    between atoms: _181  and  _182
REMARK   70  A    between atoms: _185  and  _187
REMARK   71  A    between atoms: _187  and  _188
REMARK   72  A    between atoms: _187  and  _190
REMARK   73  A    between atoms: _190  and  _191
REMARK   74  A    between atoms: _194  and  _196
REMARK   75  A    between atoms: _196  and  _197
REMARK   76  A    between atoms: _196  and  _199
REMARK   77  A    between atoms: _199  and  _200
REMARK   78  A    between atoms: _204  and  ZN_380
REMARK   79  A    between atoms: _205  and  _207
REMARK   80  A    between atoms: _207  and  _208
REMARK   81  A    between atoms: _207  and  _210
REMARK   82  A    between atoms: _210  and  _211
REMARK   83  A    between atoms: _216  and  _217
REMARK   84  A    between atoms: _219  and  _221
REMARK   85  A    between atoms: _221  and  _222
REMARK   86  A    between atoms: _224  and  _226
REMARK   87  A    between atoms: _226  and  _227
REMARK   88  A    between atoms: _226  and  _229
REMARK   89  A    between atoms: _229  and  _230
REMARK   90  A    between atoms: _235  and  _237
REMARK   91  A    between atoms: _237  and  _238
REMARK   92  A    between atoms: _237  and  _240
REMARK   93  A    between atoms: _240  and  _241
REMARK   94  A    between atoms: _241  and  _242
REMARK   95  A    between atoms: _242  and  _243
REMARK   96  A    between atoms: _243  and  ZN_380
REMARK   97  A    between atoms: _245  and  _247
REMARK   98  A    between atoms: _247  and  _248
REMARK   99  A    between atoms: _247  and  _250
REMARK  100  A    between atoms: _250  and  _251
REMARK  101  A    between atoms: _253  and  _255
REMARK  102  A    between atoms: _255  and  _256
REMARK  103  A    between atoms: _255  and  _258
REMARK  104  A    between atoms: _258  and  _259
REMARK  105  A    between atoms: _262  and  _264
REMARK  106  A    between atoms: _264  and  _265
REMARK  107  A    between atoms: _264  and  _267
REMARK  108  A    between atoms: _267  and  _268
REMARK  109  A    between atoms: _271  and  _273
REMARK  110  A    between atoms: _273  and  _274
REMARK  111  A    between atoms: _276  and  _278
REMARK  112  A    between atoms: _278  and  _279
REMARK  113  A    between atoms: _278  and  _281
REMARK  114  A    between atoms: _284  and  _286
REMARK  115  A    between atoms: _286  and  _287
REMARK  116  A    between atoms: _286  and  _289
REMARK  117  A    between atoms: _289  and  _290
REMARK  118  A    between atoms: _295  and  _296
REMARK  119  A    between atoms: _298  and  _300
REMARK  120  A    between atoms: _300  and  _301
REMARK  121  A    between atoms: _300  and  _303
REMARK  122  A    between atoms: _303  and  _304
REMARK  123  A    between atoms: _307  and  _309
REMARK  124  A    between atoms: _309  and  _310
REMARK  125  A    between atoms: _309  and  _312
REMARK  126  A    between atoms: _312  and  _313
REMARK  127  A    between atoms: _313  and  _314
REMARK  128  A    between atoms: _314  and  _315
REMARK  129  A    between atoms: _324  and  _326
REMARK  130  A    between atoms: _326  and  _327
REMARK  131  A    between atoms: _326  and  _329
REMARK  132  A    between atoms: _329  and  _330
REMARK  133  A    between atoms: _333  and  _335
REMARK  134  A    between atoms: _335  and  _336
REMARK  135  A    between atoms: _335  and  _338
REMARK  136  A    between atoms: _338  and  _339
REMARK  137  A    between atoms: _344  and  _346
REMARK  138  A    between atoms: _346  and  _347
REMARK  139  A    between atoms: _346  and  _349
REMARK  140  A    between atoms: _352  and  _354
REMARK  141  A    between atoms: _354  and  _355
REMARK  142  A    between atoms: _354  and  _357
REMARK  143  A    between atoms: _357  and  _358
REMARK  144  A    between atoms: _363  and  _365
REMARK  145  A    between atoms: _365  and  _366
REMARK  146  A    between atoms: _365  and  _368
REMARK  147  A    between atoms: _368  and  _369
REMARK  148  A    between atoms: _372  and  _374
REMARK  149  A    between atoms: _374  and  _375
REMARK  150  A    between atoms: _374  and  _377
REMARK  151  A    between atoms: _377  and  _378
REMARK                            x       y       z     vdW  Elec       q    Type
REMARK                         _______ _______ _______ _____ _____    ______ ____
ROOT
ATOM      1  CA  TYR A   2      44.562  21.749   0.626  0.00  0.00    +0.153 C 
ENDROOT
BRANCH   1   3
ATOM      2  C   VAL A   1      44.440  22.559  -1.715  0.00  0.00    +0.238 C 
ATOM      3  N   TYR A   2      43.881  22.472  -0.489  0.00  0.00    -0.297 N 
ATOM      4  H   TYR A   2      42.957  22.918  -0.318  0.00  0.00    +0.150 HD
ATOM      5  O   VAL A   1      45.495  22.002  -1.993  0.00  0.00    -0.274 OA
BRANCH   2   6
ATOM      6  CA  VAL A   1      43.719  23.396  -2.787  0.00  0.00    +0.145 C 
BRANCH   6   7
ATOM      7  CB  VAL A   1      43.135  22.501  -3.838  0.00  0.00    +0.025 C 
ATOM      8  CG2 VAL A   1      42.096  21.572  -3.198  0.00  0.00    +0.002 C 
ATOM      9  CG1 VAL A   1      42.517  23.424  -4.897  0.00  0.00    +0.002 C 
ENDBRANCH   6   7
BRANCH   6  10
ATOM     10  N   VAL A   1      44.638  24.238  -3.484  0.00  0.00    -0.238 NA
ATOM     11  H   VAL A   1      45.498  23.829  -3.902  0.00  0.00    +0.142 HD
ENDBRANCH   6  10
ENDBRANCH   2   6
ENDBRANCH   1   3
BRANCH   1  12
ATOM     12  C   TYR A   2      43.672  20.722   1.285  0.00  0.00    +0.241 C 
ATOM     13  O   TYR A   2      42.608  21.071   1.803  0.00  0.00    -0.273 OA
ATOM     14  N   GLY A   3      44.152  19.472   1.293  0.00  0.00    -0.296 N 
ATOM     15  H   GLY A   3      45.049  19.271   0.807  0.00  0.00    +0.150 HD
BRANCH  14  16
ATOM     16  CA  GLY A   3      43.456  18.393   1.960  0.00  0.00    +0.163 C 
BRANCH  16  17
ATOM     17  C   GLY A   3      43.820  18.472   3.441  0.00  0.00    +0.229 C 
ATOM     18  O   GLY A   3      44.700  19.256   3.779  0.00  0.00    -0.286 OA
ENDBRANCH  16  17
ENDBRANCH  14  16
ENDBRANCH   1  12
BRANCH   1  19
ATOM     19  CB  TYR A   2      45.109  22.674   1.757  0.00  0.00    +0.055 C 
BRANCH  19  20
ATOM     20  CG  TYR A   2      46.043  23.761   1.265  0.00  0.00    -0.020 A 
ATOM     21  CD2 TYR A   2      47.420  23.481   1.129  0.00  0.00    -0.001 A 
ATOM     22  CE2 TYR A   2      48.333  24.405   0.646  0.00  0.00    +0.036 A 
ATOM     23  CZ  TYR A   2      47.883  25.642   0.291  0.00  0.00    +0.134 A 
ATOM     24  CE1 TYR A   2      46.548  25.957   0.399  0.00  0.00    +0.036 A 
ATOM     25  CD1 TYR A   2      45.596  25.036   0.864  0.00  0.00    -0.001 A 
BRANCH  23  26
ATOM     26  OH  TYR A   2      48.768  26.596  -0.221  0.00  0.00    -0.506 OA
ATOM     27  HH  TYR A   2      48.273  27.429  -0.423  0.00  0.00    +0.292 HD
ENDBRANCH  23  26
ENDBRANCH  19  20
ENDBRANCH   1  19
TORSDOF 10
REMARK  Name = ../refined-set-2016/1tlp/1tlp_pocket.pdb
REMARK  151 active torsions:
REMARK  status: ('A' for Active; 'I' for Inactive)
REMARK    1  A    between atoms: _1  and  _3
REMARK    2  A    between atoms: _3  and  _4
REMARK    3  A    between atoms: _3  and  _6
REMARK    4  A    between atoms: _6  and  _7
REMARK    5  A    between atoms: _12  and  _13
REMARK    6  A    between atoms: _15  and  _17
REMARK    7  A    between atoms: _17  and  _18
REMARK    8  A    between atoms: _17  and  _20
REMARK    9  A    between atoms: _20  and  _21
REMARK   10  A    between atoms: _26  and  _28
REMARK   11  A    between atoms: _28  and  _29
REMARK   12  A    between atoms: _28  and  _31
REMARK   13  A    between atoms: _31  and  _32
REMARK   14  A    between atoms: _37  and  _39
REMARK   15  A    between atoms: _39  and  _40
REMARK   16  A    between atoms: _43  and  _45
REMARK   17  A    between atoms: _45  and  _46
REMARK   18  A    between atoms: _45  and  _48
REMARK   19  A    between atoms: _48  and  _49
REMARK   20  A    between atoms: _55  and  _57
REMARK   21  A    between atoms: _57  and  _58
REMARK   22  A    between atoms: _57  and  _60
REMARK   23  A    between atoms: _60  and  _61
REMARK   24  A    between atoms: _71  and  _73
REMARK   25  A    between atoms: _73  and  _74
REMARK   26  A    between atoms: _73  and  _76
REMARK   27  A    between atoms: _76  and  _77
REMARK   28  A    between atoms: _82  and  _84
REMARK   29  A    between atoms: _84  and  _85
REMARK   30  A    between atoms: _84  and  _87
REMARK   31  A    between atoms: _90  and  _92
REMARK   32  A    between atoms: _92  and  _93
REMARK   33  A    between atoms: _92  and  _95
REMARK   34  A    between atoms: _95  and  _96
REMARK   35  A    between atoms: _101  and  _102
REMARK   36  A    between atoms: _104  and  _106
REMARK   37  A    between atoms: _106  and  _107
REMARK   38  A    between atoms: _109  and  _111
REMARK   39  A    between atoms: _111  and  _112
REMARK   40  A    between atoms: _111  and  _114
REMARK   41  A    between atoms: _114  and  _115
REMARK   42  A    between atoms: _118  and  _120
REMARK   43  A    between atoms: _120  and  _121
REMARK   44  A    between atoms: _120  and  _123
REMARK   45  A    between atoms: _123  and  _124
REMARK   46  A    between atoms: _130  and  _132
REMARK   47  A    between atoms: _132  and  _133
REMARK   48  A    between atoms: _132  and  _135
REMARK   49  A    between atoms: _135  and  _136
REMARK   50  A    between atoms: _139  and  _141
REMARK   51  A    between atoms: _141  and  _142
REMARK   52  A    between atoms: _141  and  _144
REMARK   53  A    between atoms: _144  and  _145
REMARK   54  A    between atoms: _148  and  _150
REMARK   55  A    between atoms: _150  and  _151
REMARK   56  A    between atoms: _150  and  _153
REMARK   57  A    between atoms: _156  and  _158
REMARK   58  A    between atoms: _158  and  _159
REMARK   59  A    between atoms: _158  and  _161
REMARK   60  A    between atoms: _164  and  _166
REMARK   61  A    between atoms: _166  and  _167
REMARK   62  A    between atoms: _166  and  _169
REMARK   63  A    between atoms: _169  and  _170
REMARK   64  A    between atoms: _174  and  ZN_380
REMARK   65  A    between atoms: _175  and  _177
REMARK   66  A    between atoms: _177  and  _178
REMARK   67  A    between atoms: _177  and  _180
REMARK   68  A    between atoms: _180  and  _181
REMARK   69  A    between atoms: _181  and  _182
REMARK   70  A    between atoms: _185  and  _187
REMARK   71  A    between atoms: _187  and  _188
REMARK   72  A    between atoms: _187  and  _190
REMARK   73  A    between atoms: _190  and  _191
REMARK   74  A    between atoms: _194  and  _196
REMARK   75  A    between atoms: _196  and  _197
REMARK   76  A    between atoms: _196  and  _199
REMARK   77  A    between atoms: _199  and  _200
REMARK   78  A    between atoms: _204  and  ZN_380
REMARK   79  A    between atoms: _205  and  _207
REMARK   80  A    between atoms: _207  and  _208
REMARK   81  A    between atoms: _207  and  _210
REMARK   82  A    between atoms: _210  and  _211
REMARK   83  A    between atoms: _216  and  _217
REMARK   84  A    between atoms: _219  and  _221
REMARK   85  A    between atoms: _221  and  _222
REMARK   86  A    between atoms: _224  and  _226
REMARK   87  A    between atoms: _226  and  _227
REMARK   88  A    between atoms: _226  and  _229
REMARK   89  A    between atoms: _229  and  _230
REMARK   90  A    between atoms: _235  and  _237
REMARK   91  A    between atoms: _237  and  _238
REMARK   92  A    between atoms: _237  and  _240
REMARK   93  A    between atoms: _240  and  _241
REMARK   94  A    between atoms: _241  and  _242
REMARK   95  A    between atoms: _242  and  _243
REMARK   96  A    between atoms: _243  and  ZN_380
REMARK   97  A    between atoms: _245  and  _247
REMARK   98  A    between atoms: _247  and  _248
REMARK   99  A    between atoms: _247  and  _250
REMARK  100  A    between atoms: _250  and  _251
REMARK  101  A    between atoms: _253  and  _255
REMARK  102  A    between atoms: _255  and  _256
REMARK  103  A    between atoms: _255  and  _258
REMARK  104  A    between atoms: _258  and  _259
REMARK  105  A    between atoms: _262  and  _264
REMARK  106  A    between atoms: _264  and  _265
REMARK  107  A    between atoms: _264  and  _267
REMARK  108  A    between atoms: _267  and  _268
REMARK  109  A    between atoms: _271  and  _273
REMARK  110  A    between atoms: _273  and  _274
REMARK  111  A    between atoms: _276  and  _278
REMARK  112  A    between atoms: _278  and  _279
REMARK  113  A    between atoms: _278  and  _281
REMARK  114  A    between atoms: _284  and  _286
REMARK  115  A    between atoms: _286  and  _287
REMARK  116  A    between atoms: _286  and  _289
REMARK  117  A    between atoms: _289  and  _290
REMARK  118  A    between atoms: _295  and  _296
REMARK  119  A    between atoms: _298  and  _300
REMARK  120  A    between atoms: _300  and  _301
REMARK  121  A    between atoms: _300  and  _303
REMARK  122  A    between atoms: _303  and  _304
REMARK  123  A    between atoms: _307  and  _309
REMARK  124  A    between atoms: _309  and  _310
REMARK  125  A    between atoms: _309  and  _312
REMARK  126  A    between atoms: _312  and  _313
REMARK  127  A    between atoms: _313  and  _314
REMARK  128  A    between atoms: _314  and  _315
REMARK  129  A    between atoms: _324  and  _326
REMARK  130  A    between atoms: _326  and  _327
REMARK  131  A    between atoms: _326  and  _329
REMARK  132  A    between atoms: _329  and  _330
REMARK  133  A    between atoms: _333  and  _335
REMARK  134  A    between atoms: _335  and  _336
REMARK  135  A    between atoms: _335  and  _338
REMARK  136  A    between atoms: _338  and  _339
REMARK  137  A    between atoms: _344  and  _346
REMARK  138  A    between atoms: _346  and  _347
REMARK  139  A    between atoms: _346  and  _349
REMARK  140  A    between atoms: _352  and  _354
REMARK  141  A    between atoms: _354  and  _355
REMARK  142  A    between atoms: _354  and  _357
REMARK  143  A    between atoms: _357  and  _358
REMARK  144  A    between atoms: _363  and  _365
REMARK  145  A    between atoms: _365  and  _366
REMARK  146  A    between atoms: _365  and  _368
REMARK  147  A    between atoms: _368  and  _369
REMARK  148  A    between atoms: _372  and  _374
REMARK  149  A    between atoms: _374  and  _375
REMARK  150  A    between atoms: _374  and  _377
REMARK  151  A    between atoms: _377  and  _378
REMARK                            x       y       z     vdW  Elec       q    Type
REMARK                         _______ _______ _______ _____ _____    ______ ____
ROOT
ATOM      1  C   THR A   1      50.723  11.611   6.704  0.00  0.00    +0.241 C 
ATOM      2  N   PHE A   2      49.656  12.369   6.902  0.00  0.00    -0.298 N 
ATOM      3  H   PHE A   2      48.733  11.920   7.070  0.00  0.00    +0.150 HD
ATOM      4  O   THR A   1      51.832  12.074   6.564  0.00  0.00    -0.274 OA
ENDROOT
BRANCH   1   5
ATOM      5  CA  THR A   1      50.470  10.103   6.666  0.00  0.00    +0.172 C 
BRANCH   5   6
ATOM      6  N   THR A   1      49.481   9.832   7.674  0.00  0.00    -0.236 NA
ATOM      7  H   THR A   1      48.483   9.698   7.412  0.00  0.00    +0.142 HD
ENDBRANCH   5   6
BRANCH   5   8
ATOM      8  CB  THR A   1      50.017   9.654   5.227  0.00  0.00    +0.135 C 
ATOM      9  CG2 THR A   1      51.097   9.780   4.106  0.00  0.00    +0.034 C 
BRANCH   8  10
ATOM     10  OG1 THR A   1      49.438   8.359   5.234  0.00  0.00    -0.383 OA
ATOM     11  HG1 THR A   1      48.643   8.357   5.824  0.00  0.00    +0.210 HD
ENDBRANCH   8  10
ENDBRANCH   5   8
ENDBRANCH   1   5
BRANCH   2  12
ATOM     12  CA  PHE A   2      49.753  13.797   6.888  0.00  0.00    +0.141 C 
BRANCH  12  13
ATOM     13  C   PHE A   2      48.712  14.321   7.788  0.00  0.00    +0.227 C 
ATOM     14  O   PHE A   2      47.724  13.608   8.045  0.00  0.00    -0.286 OA
ENDBRANCH  12  13
BRANCH  12  15
ATOM     15  CB  PHE A   2      49.333  14.370   5.494  0.00  0.00    +0.054 C 
BRANCH  15  16
ATOM     16  CG  PHE A   2      50.445  14.416   4.440  0.00  0.00    -0.020 A 
ATOM     17  CD2 PHE A   2      51.467  15.342   4.531  0.00  0.00    -0.004 A 
ATOM     18  CE2 PHE A   2      52.458  15.358   3.565  0.00  0.00    -0.000 A 
ATOM     19  CZ  PHE A   2      52.474  14.449   2.481  0.00  0.00    -0.000 A 
ATOM     20  CE1 PHE A   2      51.406  13.539   2.378  0.00  0.00    -0.000 A 
ATOM     21  CD1 PHE A   2      50.419  13.535   3.385  0.00  0.00    -0.004 A 
ENDBRANCH  15  16
ENDBRANCH  12  15
ENDBRANCH   2  12
TORSDOF 8
REMARK  Name = ../refined-set-2016/1tlp/1tlp_pocket.pdb
REMARK  151 active torsions:
REMARK  status: ('A' for Active; 'I' for Inactive)
REMARK    1  A    between atoms: _1  and  _3
REMARK    2  A    between atoms: _3  and  _4
REMARK    3  A    between atoms: _3  and  _6
REMARK    4  A    between atoms: _6  and  _7
REMARK    5  A    between atoms: _12  and  _13
REMARK    6  A    between atoms: _15  and  _17
REMARK    7  A    between atoms: _17  and  _18
REMARK    8  A    between atoms: _17  and  _20
REMARK    9  A    between atoms: _20  and  _21
REMARK   10  A    between atoms: _26  and  _28
REMARK   11  A    between atoms: _28  and  _29
REMARK   12  A    between atoms: _28  and  _31
REMARK   13  A    between atoms: _31  and  _32
REMARK   14  A    between atoms: _37  and  _39
REMARK   15  A    between atoms: _39  and  _40
REMARK   16  A    between atoms: _43  and  _45
REMARK   17  A    between atoms: _45  and  _46
REMARK   18  A    between atoms: _45  and  _48
REMARK   19  A    between atoms: _48  and  _49
REMARK   20  A    between atoms: _55  and  _57
REMARK   21  A    between atoms: _57  and  _58
REMARK   22  A    between atoms: _57  and  _60
REMARK   23  A    between atoms: _60  and  _61
REMARK   24  A    between atoms: _71  and  _73
REMARK   25  A    between atoms: _73  and  _74
REMARK   26  A    between atoms: _73  and  _76
REMARK   27  A    between atoms: _76  and  _77
REMARK   28  A    between atoms: _82  and  _84
REMARK   29  A    between atoms: _84  and  _85
REMARK   30  A    between atoms: _84  and  _87
REMARK   31  A    between atoms: _90  and  _92
REMARK   32  A    between atoms: _92  and  _93
REMARK   33  A    between atoms: _92  and  _95
REMARK   34  A    between atoms: _95  and  _96
REMARK   35  A    between atoms: _101  and  _102
REMARK   36  A    between atoms: _104  and  _106
REMARK   37  A    between atoms: _106  and  _107
REMARK   38  A    between atoms: _109  and  _111
REMARK   39  A    between atoms: _111  and  _112
REMARK   40  A    between atoms: _111  and  _114
REMARK   41  A    between atoms: _114  and  _115
REMARK   42  A    between atoms: _118  and  _120
REMARK   43  A    between atoms: _120  and  _121
REMARK   44  A    between atoms: _120  and  _123
REMARK   45  A    between atoms: _123  and  _124
REMARK   46  A    between atoms: _130  and  _132
REMARK   47  A    between atoms: _132  and  _133
REMARK   48  A    between atoms: _132  and  _135
REMARK   49  A    between atoms: _135  and  _136
REMARK   50  A    between atoms: _139  and  _141
REMARK   51  A    between atoms: _141  and  _142
REMARK   52  A    between atoms: _141  and  _144
REMARK   53  A    between atoms: _144  and  _145
REMARK   54  A    between atoms: _148  and  _150
REMARK   55  A    between atoms: _150  and  _151
REMARK   56  A    between atoms: _150  and  _153
REMARK   57  A    between atoms: _156  and  _158
REMARK   58  A    between atoms: _158  and  _159
REMARK   59  A    between atoms: _158  and  _161
REMARK   60  A    between atoms: _164  and  _166
REMARK   61  A    between atoms: _166  and  _167
REMARK   62  A    between atoms: _166  and  _169
REMARK   63  A    between atoms: _169  and  _170
REMARK   64  A    between atoms: _174  and  ZN_380
REMARK   65  A    between atoms: _175  and  _177
REMARK   66  A    between atoms: _177  and  _178
REMARK   67  A    between atoms: _177  and  _180
REMARK   68  A    between atoms: _180  and  _181
REMARK   69  A    between atoms: _181  and  _182
REMARK   70  A    between atoms: _185  and  _187
REMARK   71  A    between atoms: _187  and  _188
REMARK   72  A    between atoms: _187  and  _190
REMARK   73  A    between atoms: _190  and  _191
REMARK   74  A    between atoms: _194  and  _196
REMARK   75  A    between atoms: _196  and  _197
REMARK   76  A    between atoms: _196  and  _199
REMARK   77  A    between atoms: _199  and  _200
REMARK   78  A    between atoms: _204  and  ZN_380
REMARK   79  A    between atoms: _205  and  _207
REMARK   80  A    between atoms: _207  and  _208
REMARK   81  A    between atoms: _207  and  _210
REMARK   82  A    between atoms: _210  and  _211
REMARK   83  A    between atoms: _216  and  _217
REMARK   84  A    between atoms: _219  and  _221
REMARK   85  A    between atoms: _221  and  _222
REMARK   86  A    between atoms: _224  and  _226
REMARK   87  A    between atoms: _226  and  _227
REMARK   88  A    between atoms: _226  and  _229
REMARK   89  A    between atoms: _229  and  _230
REMARK   90  A    between atoms: _235  and  _237
REMARK   91  A    between atoms: _237  and  _238
REMARK   92  A    between atoms: _237  and  _240
REMARK   93  A    between atoms: _240  and  _241
REMARK   94  A    between atoms: _241  and  _242
REMARK   95  A    between atoms: _242  and  _243
REMARK   96  A    between atoms: _243  and  ZN_380
REMARK   97  A    between atoms: _245  and  _247
REMARK   98  A    between atoms: _247  and  _248
REMARK   99  A    between atoms: _247  and  _250
REMARK  100  A    between atoms: _250  and  _251
REMARK  101  A    between atoms: _253  and  _255
REMARK  102  A    between atoms: _255  and  _256
REMARK  103  A    between atoms: _255  and  _258
REMARK  104  A    between atoms: _258  and  _259
REMARK  105  A    between atoms: _262  and  _264
REMARK  106  A    between atoms: _264  and  _265
REMARK  107  A    between atoms: _264  and  _267
REMARK  108  A    between atoms: _267  and  _268
REMARK  109  A    between atoms: _271  and  _273
REMARK  110  A    between atoms: _273  and  _274
REMARK  111  A    between atoms: _276  and  _278
REMARK  112  A    between atoms: _278  and  _279
REMARK  113  A    between atoms: _278  and  _281
REMARK  114  A    between atoms: _284  and  _286
REMARK  115  A    between atoms: _286  and  _287
REMARK  116  A    between atoms: _286  and  _289
REMARK  117  A    between atoms: _289  and  _290
REMARK  118  A    between atoms: _295  and  _296
REMARK  119  A    between atoms: _298  and  _300
REMARK  120  A    between atoms: _300  and  _301
REMARK  121  A    between atoms: _300  and  _303
REMARK  122  A    between atoms: _303  and  _304
REMARK  123  A    between atoms: _307  and  _309
REMARK  124  A    between atoms: _309  and  _310
REMARK  125  A    between atoms: _309  and  _312
REMARK  126  A    between atoms: _312  and  _313
REMARK  127  A    between atoms: _313  and  _314
REMARK  128  A    between atoms: _314  and  _315
REMARK  129  A    between atoms: _324  and  _326
REMARK  130  A    between atoms: _326  and  _327
REMARK  131  A    between atoms: _326  and  _329
REMARK  132  A    between atoms: _329  and  _330
REMARK  133  A    between atoms: _333  and  _335
REMARK  134  A    between atoms: _335  and  _336
REMARK  135  A    between atoms: _335  and  _338
REMARK  136  A    between atoms: _338  and  _339
REMARK  137  A    between atoms: _344  and  _346
REMARK  138  A    between atoms: _346  and  _347
REMARK  139  A    between atoms: _346  and  _349
REMARK  140  A    between atoms: _352  and  _354
REMARK  141  A    between atoms: _354  and  _355
REMARK  142  A    between atoms: _354  and  _357
REMARK  143  A    between atoms: _357  and  _358
REMARK  144  A    between atoms: _363  and  _365
REMARK  145  A    between atoms: _365  and  _366
REMARK  146  A    between atoms: _365  and  _368
REMARK  147  A    between atoms: _368  and  _369
REMARK  148  A    between atoms: _372  and  _374
REMARK  149  A    between atoms: _374  and  _375
REMARK  150  A    between atoms: _374  and  _377
REMARK  151  A    between atoms: _377  and  _378
REMARK                            x       y       z     vdW  Elec       q    Type
REMARK                         _______ _______ _______ _____ _____    ______ ____
ROOT
ATOM      1  CA  LEU A   1      48.769  20.335   4.503  0.00  0.00    +0.133 C 
ENDROOT
BRANCH   1   2
ATOM      2  N   LEU A   1      47.702  19.877   5.333  0.00  0.00    -0.239 NA
ATOM      3  H   LEU A   1      46.904  19.397   4.870  0.00  0.00    +0.142 HD
ENDBRANCH   1   2
BRANCH   1   4
ATOM      4  C   LEU A   1      49.212  21.830   4.528  0.00  0.00    +0.224 C 
ATOM      5  O   LEU A   1      50.369  22.124   4.242  0.00  0.00    -0.287 OA
ENDBRANCH   1   4
BRANCH   1   6
ATOM      6  CB  LEU A   1      48.726  19.602   3.135  0.00  0.00    +0.025 C 
BRANCH   6   7
ATOM      7  CG  LEU A   1      49.110  18.114   3.233  0.00  0.00    +0.002 C 
ATOM      8  CD2 LEU A   1      47.859  17.252   3.480  0.00  0.00    +0.000 C 
ATOM      9  CD1 LEU A   1      49.793  17.715   1.910  0.00  0.00    +0.000 C 
ENDBRANCH   6   7
ENDBRANCH   1   6
TORSDOF 4
REMARK  Name = ../refined-set-2016/1tlp/1tlp_pocket.pdb
REMARK  151 active torsions:
REMARK  status: ('A' for Active; 'I' for Inactive)
REMARK    1  A    between atoms: _1  and  _3
REMARK    2  A    between atoms: _3  and  _4
REMARK    3  A    between atoms: _3  and  _6
REMARK    4  A    between atoms: _6  and  _7
REMARK    5  A    between atoms: _12  and  _13
REMARK    6  A    between atoms: _15  and  _17
REMARK    7  A    between atoms: _17  and  _18
REMARK    8  A    between atoms: _17  and  _20
REMARK    9  A    between atoms: _20  and  _21
REMARK   10  A    between atoms: _26  and  _28
REMARK   11  A    between atoms: _28  and  _29
REMARK   12  A    between atoms: _28  and  _31
REMARK   13  A    between atoms: _31  and  _32
REMARK   14  A    between atoms: _37  and  _39
REMARK   15  A    between atoms: _39  and  _40
REMARK   16  A    between atoms: _43  and  _45
REMARK   17  A    between atoms: _45  and  _46
REMARK   18  A    between atoms: _45  and  _48
REMARK   19  A    between atoms: _48  and  _49
REMARK   20  A    between atoms: _55  and  _57
REMARK   21  A    between atoms: _57  and  _58
REMARK   22  A    between atoms: _57  and  _60
REMARK   23  A    between atoms: _60  and  _61
REMARK   24  A    between atoms: _71  and  _73
REMARK   25  A    between atoms: _73  and  _74
REMARK   26  A    between atoms: _73  and  _76
REMARK   27  A    between atoms: _76  and  _77
REMARK   28  A    between atoms: _82  and  _84
REMARK   29  A    between atoms: _84  and  _85
REMARK   30  A    between atoms: _84  and  _87
REMARK   31  A    between atoms: _90  and  _92
REMARK   32  A    between atoms: _92  and  _93
REMARK   33  A    between atoms: _92  and  _95
REMARK   34  A    between atoms: _95  and  _96
REMARK   35  A    between atoms: _101  and  _102
REMARK   36  A    between atoms: _104  and  _106
REMARK   37  A    between atoms: _106  and  _107
REMARK   38  A    between atoms: _109  and  _111
REMARK   39  A    between atoms: _111  and  _112
REMARK   40  A    between atoms: _111  and  _114
REMARK   41  A    between atoms: _114  and  _115
REMARK   42  A    between atoms: _118  and  _120
REMARK   43  A    between atoms: _120  and  _121
REMARK   44  A    between atoms: _120  and  _123
REMARK   45  A    between atoms: _123  and  _124
REMARK   46  A    between atoms: _130  and  _132
REMARK   47  A    between atoms: _132  and  _133
REMARK   48  A    between atoms: _132  and  _135
REMARK   49  A    between atoms: _135  and  _136
REMARK   50  A    between atoms: _139  and  _141
REMARK   51  A    between atoms: _141  and  _142
REMARK   52  A    between atoms: _141  and  _144
REMARK   53  A    between atoms: _144  and  _145
REMARK   54  A    between atoms: _148  and  _150
REMARK   55  A    between atoms: _150  and  _151
REMARK   56  A    between atoms: _150  and  _153
REMARK   57  A    between atoms: _156  and  _158
REMARK   58  A    between atoms: _158  and  _159
REMARK   59  A    between atoms: _158  and  _161
REMARK   60  A    between atoms: _164  and  _166
REMARK   61  A    between atoms: _166  and  _167
REMARK   62  A    between atoms: _166  and  _169
REMARK   63  A    between atoms: _169  and  _170
REMARK   64  A    between atoms: _174  and  ZN_380
REMARK   65  A    between atoms: _175  and  _177
REMARK   66  A    between atoms: _177  and  _178
REMARK   67  A    between atoms: _177  and  _180
REMARK   68  A    between atoms: _180  and  _181
REMARK   69  A    between atoms: _181  and  _182
REMARK   70  A    between atoms: _185  and  _187
REMARK   71  A    between atoms: _187  and  _188
REMARK   72  A    between atoms: _187  and  _190
REMARK   73  A    between atoms: _190  and  _191
REMARK   74  A    between atoms: _194  and  _196
REMARK   75  A    between atoms: _196  and  _197
REMARK   76  A    between atoms: _196  and  _199
REMARK   77  A    between atoms: _199  and  _200
REMARK   78  A    between atoms: _204  and  ZN_380
REMARK   79  A    between atoms: _205  and  _207
REMARK   80  A    between atoms: _207  and  _208
REMARK   81  A    between atoms: _207  and  _210
REMARK   82  A    between atoms: _210  and  _211
REMARK   83  A    between atoms: _216  and  _217
REMARK   84  A    between atoms: _219  and  _221
REMARK   85  A    between atoms: _221  and  _222
REMARK   86  A    between atoms: _224  and  _226
REMARK   87  A    between atoms: _226  and  _227
REMARK   88  A    between atoms: _226  and  _229
REMARK   89  A    between atoms: _229  and  _230
REMARK   90  A    between atoms: _235  and  _237
REMARK   91  A    between atoms: _237  and  _238
REMARK   92  A    between atoms: _237  and  _240
REMARK   93  A    between atoms: _240  and  _241
REMARK   94  A    between atoms: _241  and  _242
REMARK   95  A    between atoms: _242  and  _243
REMARK   96  A    between atoms: _243  and  ZN_380
REMARK   97  A    between atoms: _245  and  _247
REMARK   98  A    between atoms: _247  and  _248
REMARK   99  A    between atoms: _247  and  _250
REMARK  100  A    between atoms: _250  and  _251
REMARK  101  A    between atoms: _253  and  _255
REMARK  102  A    between atoms: _255  and  _256
REMARK  103  A    between atoms: _255  and  _258
REMARK  104  A    between atoms: _258  and  _259
REMARK  105  A    between atoms: _262  and  _264
REMARK  106  A    between atoms: _264  and  _265
REMARK  107  A    between atoms: _264  and  _267
REMARK  108  A    between atoms: _267  and  _268
REMARK  109  A    between atoms: _271  and  _273
REMARK  110  A    between atoms: _273  and  _274
REMARK  111  A    between atoms: _276  and  _278
REMARK  112  A    between atoms: _278  and  _279
REMARK  113  A    between atoms: _278  and  _281
REMARK  114  A    between atoms: _284  and  _286
REMARK  115  A    between atoms: _286  and  _287
REMARK  116  A    between atoms: _286  and  _289
REMARK  117  A    between atoms: _289  and  _290
REMARK  118  A    between atoms: _295  and  _296
REMARK  119  A    between atoms: _298  and  _300
REMARK  120  A    between atoms: _300  and  _301
REMARK  121  A    between atoms: _300  and  _303
REMARK  122  A    between atoms: _303  and  _304
REMARK  123  A    between atoms: _307  and  _309
REMARK  124  A    between atoms: _309  and  _310
REMARK  125  A    between atoms: _309  and  _312
REMARK  126  A    between atoms: _312  and  _313
REMARK  127  A    between atoms: _313  and  _314
REMARK  128  A    between atoms: _314  and  _315
REMARK  129  A    between atoms: _324  and  _326
REMARK  130  A    between atoms: _326  and  _327
REMARK  131  A    between atoms: _326  and  _329
REMARK  132  A    between atoms: _329  and  _330
REMARK  133  A    between atoms: _333  and  _335
REMARK  134  A    between atoms: _335  and  _336
REMARK  135  A    between atoms: _335  and  _338
REMARK  136  A    between atoms: _338  and  _339
REMARK  137  A    between atoms: _344  and  _346
REMARK  138  A    between atoms: _346  and  _347
REMARK  139  A    between atoms: _346  and  _349
REMARK  140  A    between atoms: _352  and  _354
REMARK  141  A    between atoms: _354  and  _355
REMARK  142  A    between atoms: _354  and  _357
REMARK  143  A    between atoms: _357  and  _358
REMARK  144  A    between atoms: _363  and  _365
REMARK  145  A    between atoms: _365  and  _366
REMARK  146  A    between atoms: _365  and  _368
REMARK  147  A    between atoms: _368  and  _369
REMARK  148  A    between atoms: _372  and  _374
REMARK  149  A    between atoms: _374  and  _375
REMARK  150  A    between atoms: _374  and  _377
REMARK  151  A    between atoms: _377  and  _378
REMARK                            x       y       z     vdW  Elec       q    Type
REMARK                         _______ _______ _______ _____ _____    ______ ____
ROOT
ATOM      1  CA  VAL A   2      54.140  23.199   1.108  0.00  0.00    +0.148 C 
ENDROOT
BRANCH   1   3
ATOM      2  C   ASP A   1      56.313  24.369   1.273  0.00  0.00    +0.239 C 
ATOM      3  N   VAL A   2      55.248  23.787   1.850  0.00  0.00    -0.297 N 
ATOM      4  H   VAL A   2      55.212  23.754   2.889  0.00  0.00    +0.150 HD
ATOM      5  O   ASP A   1      56.473  24.460   0.049  0.00  0.00    -0.274 OA
BRANCH   2   6
ATOM      6  CA  ASP A   1      57.306  24.971   2.279  0.00  0.00    +0.156 C 
BRANCH   6   7
ATOM      7  N   ASP A   1      56.654  25.375   3.520  0.00  0.00    -0.238 NA
ATOM      8  H   ASP A   1      56.864  24.855   4.396  0.00  0.00    +0.142 HD
ENDBRANCH   6   7
BRANCH   6   9
ATOM      9  CB  ASP A   1      58.517  24.059   2.550  0.00  0.00    +0.140 C 
BRANCH   9  10
ATOM     10  CG  ASP A   1      58.275  22.762   3.313  0.00  0.00    +0.367 C 
ATOM     11  OD2 ASP A   1      57.148  22.442   3.658  0.00  0.00    -0.246 OA
ATOM     12  OD1 ASP A   1      59.269  22.114   3.583  0.00  0.00    -0.246 OA
ENDBRANCH   9  10
ENDBRANCH   6   9
ENDBRANCH   2   6
ENDBRANCH   1   3
BRANCH   1  13
ATOM     13  C   VAL A   2      53.337  24.295   0.384  0.00  0.00    +0.241 C 
ATOM     14  N   VAL A   3      52.960  25.326   1.162  0.00  0.00    -0.298 N 
ATOM     15  H   VAL A   3      53.191  25.274   2.175  0.00  0.00    +0.150 HD
ATOM     16  O   VAL A   2      53.097  24.211  -0.827  0.00  0.00    -0.273 OA
BRANCH  14  17
ATOM     17  CA  VAL A   3      52.253  26.508   0.692  0.00  0.00    +0.137 C 
BRANCH  17  18
ATOM     18  CB  VAL A   3      51.726  27.461   1.821  0.00  0.00    +0.026 C 
ATOM     19  CG2 VAL A   3      50.636  26.768   2.640  0.00  0.00    +0.002 C 
ATOM     20  CG1 VAL A   3      51.079  28.687   1.168  0.00  0.00    +0.002 C 
ENDBRANCH  17  18
BRANCH  17  21
ATOM     21  C   VAL A   3      53.057  27.256  -0.376  0.00  0.00    +0.227 C 
ATOM     22  O   VAL A   3      52.509  27.635  -1.371  0.00  0.00    -0.286 OA
ENDBRANCH  17  21
ENDBRANCH  14  17
ENDBRANCH   1  13
BRANCH   1  23
ATOM     23  CB  VAL A   2      53.249  22.266   1.976  0.00  0.00    +0.027 C 
ATOM     24  CG2 VAL A   2      54.048  21.034   2.445  0.00  0.00    +0.002 C 
ATOM     25  CG1 VAL A   2      51.975  21.831   1.235  0.00  0.00    +0.002 C 
ENDBRANCH   1  23
TORSDOF 10
REMARK  Name = ../refined-set-2016/1tlp/1tlp_pocket.pdb
REMARK  151 active torsions:
REMARK  status: ('A' for Active; 'I' for Inactive)
REMARK    1  A    between atoms: _1  and  _3
REMARK    2  A    between atoms: _3  and  _4
REMARK    3  A    between atoms: _3  and  _6
REMARK    4  A    between atoms: _6  and  _7
REMARK    5  A    between atoms: _12  and  _13
REMARK    6  A    between atoms: _15  and  _17
REMARK    7  A    between atoms: _17  and  _18
REMARK    8  A    between atoms: _17  and  _20
REMARK    9  A    between atoms: _20  and  _21
REMARK   10  A    between atoms: _26  and  _28
REMARK   11  A    between atoms: _28  and  _29
REMARK   12  A    between atoms: _28  and  _31
REMARK   13  A    between atoms: _31  and  _32
REMARK   14  A    between atoms: _37  and  _39
REMARK   15  A    between atoms: _39  and  _40
REMARK   16  A    between atoms: _43  and  _45
REMARK   17  A    between atoms: _45  and  _46
REMARK   18  A    between atoms: _45  and  _48
REMARK   19  A    between atoms: _48  and  _49
REMARK   20  A    between atoms: _55  and  _57
REMARK   21  A    between atoms: _57  and  _58
REMARK   22  A    between atoms: _57  and  _60
REMARK   23  A    between atoms: _60  and  _61
REMARK   24  A    between atoms: _71  and  _73
REMARK   25  A    between atoms: _73  and  _74
REMARK   26  A    between atoms: _73  and  _76
REMARK   27  A    between atoms: _76  and  _77
REMARK   28  A    between atoms: _82  and  _84
REMARK   29  A    between atoms: _84  and  _85
REMARK   30  A    between atoms: _84  and  _87
REMARK   31  A    between atoms: _90  and  _92
REMARK   32  A    between atoms: _92  and  _93
REMARK   33  A    between atoms: _92  and  _95
REMARK   34  A    between atoms: _95  and  _96
REMARK   35  A    between atoms: _101  and  _102
REMARK   36  A    between atoms: _104  and  _106
REMARK   37  A    between atoms: _106  and  _107
REMARK   38  A    between atoms: _109  and  _111
REMARK   39  A    between atoms: _111  and  _112
REMARK   40  A    between atoms: _111  and  _114
REMARK   41  A    between atoms: _114  and  _115
REMARK   42  A    between atoms: _118  and  _120
REMARK   43  A    between atoms: _120  and  _121
REMARK   44  A    between atoms: _120  and  _123
REMARK   45  A    between atoms: _123  and  _124
REMARK   46  A    between atoms: _130  and  _132
REMARK   47  A    between atoms: _132  and  _133
REMARK   48  A    between atoms: _132  and  _135
REMARK   49  A    between atoms: _135  and  _136
REMARK   50  A    between atoms: _139  and  _141
REMARK   51  A    between atoms: _141  and  _142
REMARK   52  A    between atoms: _141  and  _144
REMARK   53  A    between atoms: _144  and  _145
REMARK   54  A    between atoms: _148  and  _150
REMARK   55  A    between atoms: _150  and  _151
REMARK   56  A    between atoms: _150  and  _153
REMARK   57  A    between atoms: _156  and  _158
REMARK   58  A    between atoms: _158  and  _159
REMARK   59  A    between atoms: _158  and  _161
REMARK   60  A    between atoms: _164  and  _166
REMARK   61  A    between atoms: _166  and  _167
REMARK   62  A    between atoms: _166  and  _169
REMARK   63  A    between atoms: _169  and  _170
REMARK   64  A    between atoms: _174  and  ZN_380
REMARK   65  A    between atoms: _175  and  _177
REMARK   66  A    between atoms: _177  and  _178
REMARK   67  A    between atoms: _177  and  _180
REMARK   68  A    between atoms: _180  and  _181
REMARK   69  A    between atoms: _181  and  _182
REMARK   70  A    between atoms: _185  and  _187
REMARK   71  A    between atoms: _187  and  _188
REMARK   72  A    between atoms: _187  and  _190
REMARK   73  A    between atoms: _190  and  _191
REMARK   74  A    between atoms: _194  and  _196
REMARK   75  A    between atoms: _196  and  _197
REMARK   76  A    between atoms: _196  and  _199
REMARK   77  A    between atoms: _199  and  _200
REMARK   78  A    between atoms: _204  and  ZN_380
REMARK   79  A    between atoms: _205  and  _207
REMARK   80  A    between atoms: _207  and  _208
REMARK   81  A    between atoms: _207  and  _210
REMARK   82  A    between atoms: _210  and  _211
REMARK   83  A    between atoms: _216  and  _217
REMARK   84  A    between atoms: _219  and  _221
REMARK   85  A    between atoms: _221  and  _222
REMARK   86  A    between atoms: _224  and  _226
REMARK   87  A    between atoms: _226  and  _227
REMARK   88  A    between atoms: _226  and  _229
REMARK   89  A    between atoms: _229  and  _230
REMARK   90  A    between atoms: _235  and  _237
REMARK   91  A    between atoms: _237  and  _238
REMARK   92  A    between atoms: _237  and  _240
REMARK   93  A    between atoms: _240  and  _241
REMARK   94  A    between atoms: _241  and  _242
REMARK   95  A    between atoms: _242  and  _243
REMARK   96  A    between atoms: _243  and  ZN_380
REMARK   97  A    between atoms: _245  and  _247
REMARK   98  A    between atoms: _247  and  _248
REMARK   99  A    between atoms: _247  and  _250
REMARK  100  A    between atoms: _250  and  _251
REMARK  101  A    between atoms: _253  and  _255
REMARK  102  A    between atoms: _255  and  _256
REMARK  103  A    between atoms: _255  and  _258
REMARK  104  A    between atoms: _258  and  _259
REMARK  105  A    between atoms: _262  and  _264
REMARK  106  A    between atoms: _264  and  _265
REMARK  107  A    between atoms: _264  and  _267
REMARK  108  A    between atoms: _267  and  _268
REMARK  109  A    between atoms: _271  and  _273
REMARK  110  A    between atoms: _273  and  _274
REMARK  111  A    between atoms: _276  and  _278
REMARK  112  A    between atoms: _278  and  _279
REMARK  113  A    between atoms: _278  and  _281
REMARK  114  A    between atoms: _284  and  _286
REMARK  115  A    between atoms: _286  and  _287
REMARK  116  A    between atoms: _286  and  _289
REMARK  117  A    between atoms: _289  and  _290
REMARK  118  A    between atoms: _295  and  _296
REMARK  119  A    between atoms: _298  and  _300
REMARK  120  A    between atoms: _300  and  _301
REMARK  121  A    between atoms: _300  and  _303
REMARK  122  A    between atoms: _303  and  _304
REMARK  123  A    between atoms: _307  and  _309
REMARK  124  A    between atoms: _309  and  _310
REMARK  125  A    between atoms: _309  and  _312
REMARK  126  A    between atoms: _312  and  _313
REMARK  127  A    between atoms: _313  and  _314
REMARK  128  A    between atoms: _314  and  _315
REMARK  129  A    between atoms: _324  and  _326
REMARK  130  A    between atoms: _326  and  _327
REMARK  131  A    between atoms: _326  and  _329
REMARK  132  A    between atoms: _329  and  _330
REMARK  133  A    between atoms: _333  and  _335
REMARK  134  A    between atoms: _335  and  _336
REMARK  135  A    between atoms: _335  and  _338
REMARK  136  A    between atoms: _338  and  _339
REMARK  137  A    between atoms: _344  and  _346
REMARK  138  A    between atoms: _346  and  _347
REMARK  139  A    between atoms: _346  and  _349
REMARK  140  A    between atoms: _352  and  _354
REMARK  141  A    between atoms: _354  and  _355
REMARK  142  A    between atoms: _354  and  _357
REMARK  143  A    between atoms: _357  and  _358
REMARK  144  A    between atoms: _363  and  _365
REMARK  145  A    between atoms: _365  and  _366
REMARK  146  A    between atoms: _365  and  _368
REMARK  147  A    between atoms: _368  and  _369
REMARK  148  A    between atoms: _372  and  _374
REMARK  149  A    between atoms: _374  and  _375
REMARK  150  A    between atoms: _374  and  _377
REMARK  151  A    between atoms: _377  and  _378
REMARK                            x       y       z     vdW  Elec       q    Type
REMARK                         _______ _______ _______ _____ _____    ______ ____
ROOT
ATOM      1 ZN   UNK A   1      54.471  20.233  -7.219  0.00  0.00    +0.000 Zn
ENDROOT
BRANCH   1   5
ATOM      2  C   UNK A   1      55.886  22.550  -3.842  0.00  0.00    +0.000 A 
ATOM      3  N   UNK A   1      57.025  21.742  -3.998  0.00  0.00    +0.000 NA
ATOM      4  C   UNK A   1      56.741  20.908  -5.017  0.00  0.00    +0.000 A 
ATOM      5  N   UNK A   1      55.489  21.113  -5.457  0.00  0.00    +0.000 N 
ATOM      6  C   UNK A   1      54.934  22.133  -4.708  0.00  0.00    +0.000 A 
BRANCH   2   7
ATOM      7  C   UNK A   1      55.775  23.658  -2.792  0.00  0.00    +0.000 C 
BRANCH   7   8
ATOM      8  C   UNK A   1      55.661  25.099  -3.340  0.00  0.00    +0.000 C 
BRANCH   8   9
ATOM      9  C   UNK A   1      54.503  25.188  -4.313  0.00  0.00    +0.000 C 
ATOM     10  N   UNK A   2      53.332  25.274  -3.737  0.00  0.00    +0.000 N 
ATOM     11  H   UNK A   2      53.285  25.247  -2.698  0.00  0.00    +0.000 HD
ATOM     12  O   UNK A   1      54.632  25.180  -5.538  0.00  0.00    +0.000 OA
BRANCH  10  13
ATOM     13  C   UNK A   2      52.088  25.406  -4.488  0.00  0.00    +0.000 C 
BRANCH  13  14
ATOM     14  C   UNK A   2      51.824  26.748  -5.206  0.00  0.00    +0.000 C 
ATOM     15  N   LEU A   3      52.133  27.815  -4.535  0.00  0.00    +0.000 N 
ATOM     16  H   LEU A   3      52.502  27.724  -3.567  0.00  0.00    +0.000 HD
ATOM     17  O   UNK A   2      51.394  26.812  -6.373  0.00  0.00    +0.000 OA
BRANCH  15  18
ATOM     18  CA  LEU A   3      51.971  29.122  -5.113  0.00  0.00    +0.000 C 
BRANCH  18  19
ATOM     19  C   LEU A   3      53.053  29.277  -6.212  0.00  0.00    +0.000 C 
ATOM     20  O   LEU A   3      52.822  29.832  -7.299  0.00  0.00    +0.000 OA
ENDBRANCH  18  19
BRANCH  18  21
ATOM     21  CB  LEU A   3      52.127  30.081  -3.906  0.00  0.00    +0.000 C 
BRANCH  21  22
ATOM     22  CG  LEU A   3      51.280  31.370  -3.897  0.00  0.00    +0.000 C 
ATOM     23  CD2 LEU A   3      52.041  32.520  -4.568  0.00  0.00    +0.000 C 
ATOM     24  CD1 LEU A   3      50.023  31.138  -4.719  0.00  0.00    +0.000 C 
ENDBRANCH  21  22
ENDBRANCH  18  21
ENDBRANCH  15  18
ENDBRANCH  13  14
BRANCH  13  25
ATOM     25  C   UNK A   2      50.866  25.088  -3.641  0.00  0.00    +0.000 C 
BRANCH  25  26
ATOM     26  C   UNK A   2      50.692  23.594  -3.136  0.00  0.00    +0.000 C 
BRANCH  26  27
ATOM     27  C   UNK A   2      50.994  22.396  -4.025  0.00  0.00    +0.000 C 
ATOM     28  O   UNK A   2      51.550  21.446  -3.406  0.00  0.00    +0.000 OA
ATOM     29  O   UNK A   2      50.921  22.506  -5.279  0.00  0.00    +0.000 OA
ENDBRANCH  26  27
ENDBRANCH  25  26
ENDBRANCH  13  25
ENDBRANCH  10  13
ENDBRANCH   8   9
BRANCH   8  30
ATOM     30  N   UNK A   1      55.414  26.007  -2.239  0.00  0.00    +0.000 NA
ATOM     31  H   UNK A   1      55.216  25.619  -1.295  0.00  0.00    +0.000 HD
ENDBRANCH   8  30
ENDBRANCH   7   8
ENDBRANCH   2   7
ENDBRANCH   1   5
BRANCH   1  32
ATOM     32  N   UNK A   1      53.734  22.030  -8.220  0.00  0.00    +0.000 N 
ATOM     33  C   UNK A   1      52.881  23.079  -7.966  0.00  0.00    +0.000 A 
ATOM     34  C   UNK A   1      53.074  23.989  -8.930  0.00  0.00    +0.000 A 
ATOM     35  N   UNK A   1      54.028  23.484  -9.838  0.00  0.00    +0.000 NA
ATOM     36  C   UNK A   1      54.394  22.304  -9.357  0.00  0.00    +0.000 A 
BRANCH  34  37
ATOM     37  C   UNK A   1      52.419  25.350  -9.065  0.00  0.00    +0.000 C 
BRANCH  37  38
ATOM     38  C   UNK A   1      53.399  26.502  -9.402  0.00  0.00    +0.000 C 
BRANCH  38  39
ATOM     39  C   UNK A   1      52.611  27.505 -10.205  0.00  0.00    +0.000 C 
ATOM     40  O   UNK A   1      52.554  27.369 -11.403  0.00  0.00    +0.000 OA
ENDBRANCH  38  39
BRANCH  38  41
ATOM     41  N   UNK A   1      53.962  27.140  -8.229  0.00  0.00    +0.000 NA
ATOM     42  H   UNK A   1      53.642  26.823  -7.292  0.00  0.00    +0.000 HD
ENDBRANCH  38  41
ENDBRANCH  37  38
ENDBRANCH  34  37
ENDBRANCH   1  32
BRANCH   1  43
ATOM     43  O   UNK A   2      55.277  19.374  -8.770  0.00  0.00    +0.000 OA
BRANCH  43  44
ATOM     44  C   UNK A   2      56.347  18.866  -8.468  0.00  0.00    +0.000 C 
ATOM     45  O   UNK A   2      56.751  18.823  -7.318  0.00  0.00    +0.000 OA
BRANCH  44  46
ATOM     46  C   UNK A   2      57.230  18.283  -9.563  0.00  0.00    +0.000 C 
BRANCH  46  47
ATOM     47  C   UNK A   2      58.657  18.801  -9.397  0.00  0.00    +0.000 C 
BRANCH  47  48
ATOM     48  C   UNK A   2      58.696  20.344  -9.442  0.00  0.00    +0.000 C 
BRANCH  48  49
ATOM     49  N   UNK A   2      58.695  20.855 -10.824  0.00  0.00    +0.000 N 
ATOM     50  C   UNK A   1      58.559  22.144 -11.177  0.00  0.00    +0.000 C 
ATOM     51  O   UNK A   1      58.424  23.095 -10.397  0.00  0.00    +0.000 OA
ATOM     52  H   UNK A   2      58.809  20.160 -11.589  0.00  0.00    +0.000 HD
BRANCH  50  53
ATOM     53  C   UNK A   1      58.699  22.394 -12.664  0.00  0.00    +0.000 C 
BRANCH  53  54
ATOM     54  N   UNK A   1      59.827  21.703 -13.218  0.00  0.00    +0.000 NA
ATOM     55  H   UNK A   1      59.656  21.032 -13.994  0.00  0.00    +0.000 HD
ENDBRANCH  53  54
BRANCH  53  56
ATOM     56  C   UNK A   1      57.440  21.990 -13.459  0.00  0.00    +0.000 C 
BRANCH  56  57
ATOM     57  C   UNK A   1      56.169  22.771 -13.106  0.00  0.00    +0.000 C 
ATOM     58  O   UNK A   1      55.966  23.219 -11.972  0.00  0.00    +0.000 OA
ATOM     59  N   UNK A   1      55.402  23.144 -14.107  0.00  0.00    +0.000 N 
ATOM     60  H   UNK A   1      54.625  23.816 -13.944  0.00  0.00    +0.000 HD
ATOM     61  H   UNK A   1      55.573  22.767 -15.061  0.00  0.00    +0.000 HD
ENDBRANCH  56  57
ENDBRANCH  53  56
ENDBRANCH  50  53
ENDBRANCH  48  49
BRANCH  48  62
ATOM     62  C   UNK A   2      59.828  20.853  -8.590  0.00  0.00    +0.000 C 
ATOM     63  O   UNK A   2      59.574  21.308  -7.512  0.00  0.00    +0.000 OA
ENDBRANCH  48  62
ENDBRANCH  47  48
ENDBRANCH  46  47
ENDBRANCH  44  46
ENDBRANCH  43  44
ENDBRANCH   1  43
TORSDOF 30
REMARK  Name = ../refined-set-2016/1tlp/1tlp_pocket.pdb
REMARK  151 active torsions:
REMARK  status: ('A' for Active; 'I' for Inactive)
REMARK    1  A    between atoms: _1  and  _3
REMARK    2  A    between atoms: _3  and  _4
REMARK    3  A    between atoms: _3  and  _6
REMARK    4  A    between atoms: _6  and  _7
REMARK    5  A    between atoms: _12  and  _13
REMARK    6  A    between atoms: _15  and  _17
REMARK    7  A    between atoms: _17  and  _18
REMARK    8  A    between atoms: _17  and  _20
REMARK    9  A    between atoms: _20  and  _21
REMARK   10  A    between atoms: _26  and  _28
REMARK   11  A    between atoms: _28  and  _29
REMARK   12  A    between atoms: _28  and  _31
REMARK   13  A    between atoms: _31  and  _32
REMARK   14  A    between atoms: _37  and  _39
REMARK   15  A    between atoms: _39  and  _40
REMARK   16  A    between atoms: _43  and  _45
REMARK   17  A    between atoms: _45  and  _46
REMARK   18  A    between atoms: _45  and  _48
REMARK   19  A    between atoms: _48  and  _49
REMARK   20  A    between atoms: _55  and  _57
REMARK   21  A    between atoms: _57  and  _58
REMARK   22  A    between atoms: _57  and  _60
REMARK   23  A    between atoms: _60  and  _61
REMARK   24  A    between atoms: _71  and  _73
REMARK   25  A    between atoms: _73  and  _74
REMARK   26  A    between atoms: _73  and  _76
REMARK   27  A    between atoms: _76  and  _77
REMARK   28  A    between atoms: _82  and  _84
REMARK   29  A    between atoms: _84  and  _85
REMARK   30  A    between atoms: _84  and  _87
REMARK   31  A    between atoms: _90  and  _92
REMARK   32  A    between atoms: _92  and  _93
REMARK   33  A    between atoms: _92  and  _95
REMARK   34  A    between atoms: _95  and  _96
REMARK   35  A    between atoms: _101  and  _102
REMARK   36  A    between atoms: _104  and  _106
REMARK   37  A    between atoms: _106  and  _107
REMARK   38  A    between atoms: _109  and  _111
REMARK   39  A    between atoms: _111  and  _112
REMARK   40  A    between atoms: _111  and  _114
REMARK   41  A    between atoms: _114  and  _115
REMARK   42  A    between atoms: _118  and  _120
REMARK   43  A    between atoms: _120  and  _121
REMARK   44  A    between atoms: _120  and  _123
REMARK   45  A    between atoms: _123  and  _124
REMARK   46  A    between atoms: _130  and  _132
REMARK   47  A    between atoms: _132  and  _133
REMARK   48  A    between atoms: _132  and  _135
REMARK   49  A    between atoms: _135  and  _136
REMARK   50  A    between atoms: _139  and  _141
REMARK   51  A    between atoms: _141  and  _142
REMARK   52  A    between atoms: _141  and  _144
REMARK   53  A    between atoms: _144  and  _145
REMARK   54  A    between atoms: _148  and  _150
REMARK   55  A    between atoms: _150  and  _151
REMARK   56  A    between atoms: _150  and  _153
REMARK   57  A    between atoms: _156  and  _158
REMARK   58  A    between atoms: _158  and  _159
REMARK   59  A    between atoms: _158  and  _161
REMARK   60  A    between atoms: _164  and  _166
REMARK   61  A    between atoms: _166  and  _167
REMARK   62  A    between atoms: _166  and  _169
REMARK   63  A    between atoms: _169  and  _170
REMARK   64  A    between atoms: _174  and  ZN_380
REMARK   65  A    between atoms: _175  and  _177
REMARK   66  A    between atoms: _177  and  _178
REMARK   67  A    between atoms: _177  and  _180
REMARK   68  A    between atoms: _180  and  _181
REMARK   69  A    between atoms: _181  and  _182
REMARK   70  A    between atoms: _185  and  _187
REMARK   71  A    between atoms: _187  and  _188
REMARK   72  A    between atoms: _187  and  _190
REMARK   73  A    between atoms: _190  and  _191
REMARK   74  A    between atoms: _194  and  _196
REMARK   75  A    between atoms: _196  and  _197
REMARK   76  A    between atoms: _196  and  _199
REMARK   77  A    between atoms: _199  and  _200
REMARK   78  A    between atoms: _204  and  ZN_380
REMARK   79  A    between atoms: _205  and  _207
REMARK   80  A    between atoms: _207  and  _208
REMARK   81  A    between atoms: _207  and  _210
REMARK   82  A    between atoms: _210  and  _211
REMARK   83  A    between atoms: _216  and  _217
REMARK   84  A    between atoms: _219  and  _221
REMARK   85  A    between atoms: _221  and  _222
REMARK   86  A    between atoms: _224  and  _226
REMARK   87  A    between atoms: _226  and  _227
REMARK   88  A    between atoms: _226  and  _229
REMARK   89  A    between atoms: _229  and  _230
REMARK   90  A    between atoms: _235  and  _237
REMARK   91  A    between atoms: _237  and  _238
REMARK   92  A    between atoms: _237  and  _240
REMARK   93  A    between atoms: _240  and  _241
REMARK   94  A    between atoms: _241  and  _242
REMARK   95  A    between atoms: _242  and  _243
REMARK   96  A    between atoms: _243  and  ZN_380
REMARK   97  A    between atoms: _245  and  _247
REMARK   98  A    between atoms: _247  and  _248
REMARK   99  A    between atoms: _247  and  _250
REMARK  100  A    between atoms: _250  and  _251
REMARK  101  A    between atoms: _253  and  _255
REMARK  102  A    between atoms: _255  and  _256
REMARK  103  A    between atoms: _255  and  _258
REMARK  104  A    between atoms: _258  and  _259
REMARK  105  A    between atoms: _262  and  _264
REMARK  106  A    between atoms: _264  and  _265
REMARK  107  A    between atoms: _264  and  _267
REMARK  108  A    between atoms: _267  and  _268
REMARK  109  A    between atoms: _271  and  _273
REMARK  110  A    between atoms: _273  and  _274
REMARK  111  A    between atoms: _276  and  _278
REMARK  112  A    between atoms: _278  and  _279
REMARK  113  A    between atoms: _278  and  _281
REMARK  114  A    between atoms: _284  and  _286
REMARK  115  A    between atoms: _286  and  _287
REMARK  116  A    between atoms: _286  and  _289
REMARK  117  A    between atoms: _289  and  _290
REMARK  118  A    between atoms: _295  and  _296
REMARK  119  A    between atoms: _298  and  _300
REMARK  120  A    between atoms: _300  and  _301
REMARK  121  A    between atoms: _300  and  _303
REMARK  122  A    between atoms: _303  and  _304
REMARK  123  A    between atoms: _307  and  _309
REMARK  124  A    between atoms: _309  and  _310
REMARK  125  A    between atoms: _309  and  _312
REMARK  126  A    between atoms: _312  and  _313
REMARK  127  A    between atoms: _313  and  _314
REMARK  128  A    between atoms: _314  and  _315
REMARK  129  A    between atoms: _324  and  _326
REMARK  130  A    between atoms: _326  and  _327
REMARK  131  A    between atoms: _326  and  _329
REMARK  132  A    between atoms: _329  and  _330
REMARK  133  A    between atoms: _333  and  _335
REMARK  134  A    between atoms: _335  and  _336
REMARK  135  A    between atoms: _335  and  _338
REMARK  136  A    between atoms: _338  and  _339
REMARK  137  A    between atoms: _344  and  _346
REMARK  138  A    between atoms: _346  and  _347
REMARK  139  A    between atoms: _346  and  _349
REMARK  140  A    between atoms: _352  and  _354
REMARK  141  A    between atoms: _354  and  _355
REMARK  142  A    between atoms: _354  and  _357
REMARK  143  A    between atoms: _357  and  _358
REMARK  144  A    between atoms: _363  and  _365
REMARK  145  A    between atoms: _365  and  _366
REMARK  146  A    between atoms: _365  and  _368
REMARK  147  A    between atoms: _368  and  _369
REMARK  148  A    between atoms: _372  and  _374
REMARK  149  A    between atoms: _374  and  _375
REMARK  150  A    between atoms: _374  and  _377
REMARK  151  A    between atoms: _377  and  _378
REMARK                            x       y       z     vdW  Elec       q    Type
REMARK                         _______ _______ _______ _____ _____    ______ ____
ROOT
ATOM      1  CG  TYR A   1      52.948  18.813 -13.924  0.00  0.00    -0.020 A 
ATOM      2  CD2 TYR A   1      53.866  19.546 -13.192  0.00  0.00    -0.001 A 
ATOM      3  CE2 TYR A   1      54.106  19.243 -11.836  0.00  0.00    +0.036 A 
ATOM      4  CZ  TYR A   1      53.430  18.203 -11.203  0.00  0.00    +0.134 A 
ATOM      5  CE1 TYR A   1      52.490  17.455 -11.954  0.00  0.00    +0.036 A 
ATOM      6  CD1 TYR A   1      52.271  17.764 -13.289  0.00  0.00    -0.001 A 
ENDROOT
BRANCH   4   7
ATOM      7  OH  TYR A   1      53.572  17.895  -9.893  0.00  0.00    -0.506 OA
ATOM      8  HH  TYR A   1      53.309  18.674  -9.342  0.00  0.00    +0.292 HD
ENDBRANCH   4   7
BRANCH   1   9
ATOM      9  CB  TYR A   1      52.648  19.064 -15.439  0.00  0.00    +0.051 C 
BRANCH   9  10
ATOM     10  CA  TYR A   1      53.864  18.843 -16.385  0.00  0.00    +0.137 C 
BRANCH  10  11
ATOM     11  N   TYR A   1      53.815  19.751 -17.512  0.00  0.00    -0.239 NA
ATOM     12  H   TYR A   1      52.901  20.014 -17.933  0.00  0.00    +0.142 HD
ENDBRANCH  10  11
BRANCH  10  13
ATOM     13  C   TYR A   1      54.198  17.379 -16.718  0.00  0.00    +0.224 C 
ATOM     14  O   TYR A   1      53.512  16.443 -16.331  0.00  0.00    -0.287 OA
ENDBRANCH  10  13
ENDBRANCH   9  10
ENDBRANCH   1   9
TORSDOF 5
REMARK  Name = ../refined-set-2016/1tlp/1tlp_pocket.pdb
REMARK  151 active torsions:
REMARK  status: ('A' for Active; 'I' for Inactive)
REMARK    1  A    between atoms: _1  and  _3
REMARK    2  A    between atoms: _3  and  _4
REMARK    3  A    between atoms: _3  and  _6
REMARK    4  A    between atoms: _6  and  _7
REMARK    5  A    between atoms: _12  and  _13
REMARK    6  A    between atoms: _15  and  _17
REMARK    7  A    between atoms: _17  and  _18
REMARK    8  A    between atoms: _17  and  _20
REMARK    9  A    between atoms: _20  and  _21
REMARK   10  A    between atoms: _26  and  _28
REMARK   11  A    between atoms: _28  and  _29
REMARK   12  A    between atoms: _28  and  _31
REMARK   13  A    between atoms: _31  and  _32
REMARK   14  A    between atoms: _37  and  _39
REMARK   15  A    between atoms: _39  and  _40
REMARK   16  A    between atoms: _43  and  _45
REMARK   17  A    between atoms: _45  and  _46
REMARK   18  A    between atoms: _45  and  _48
REMARK   19  A    between atoms: _48  and  _49
REMARK   20  A    between atoms: _55  and  _57
REMARK   21  A    between atoms: _57  and  _58
REMARK   22  A    between atoms: _57  and  _60
REMARK   23  A    between atoms: _60  and  _61
REMARK   24  A    between atoms: _71  and  _73
REMARK   25  A    between atoms: _73  and  _74
REMARK   26  A    between atoms: _73  and  _76
REMARK   27  A    between atoms: _76  and  _77
REMARK   28  A    between atoms: _82  and  _84
REMARK   29  A    between atoms: _84  and  _85
REMARK   30  A    between atoms: _84  and  _87
REMARK   31  A    between atoms: _90  and  _92
REMARK   32  A    between atoms: _92  and  _93
REMARK   33  A    between atoms: _92  and  _95
REMARK   34  A    between atoms: _95  and  _96
REMARK   35  A    between atoms: _101  and  _102
REMARK   36  A    between atoms: _104  and  _106
REMARK   37  A    between atoms: _106  and  _107
REMARK   38  A    between atoms: _109  and  _111
REMARK   39  A    between atoms: _111  and  _112
REMARK   40  A    between atoms: _111  and  _114
REMARK   41  A    between atoms: _114  and  _115
REMARK   42  A    between atoms: _118  and  _120
REMARK   43  A    between atoms: _120  and  _121
REMARK   44  A    between atoms: _120  and  _123
REMARK   45  A    between atoms: _123  and  _124
REMARK   46  A    between atoms: _130  and  _132
REMARK   47  A    between atoms: _132  and  _133
REMARK   48  A    between atoms: _132  and  _135
REMARK   49  A    between atoms: _135  and  _136
REMARK   50  A    between atoms: _139  and  _141
REMARK   51  A    between atoms: _141  and  _142
REMARK   52  A    between atoms: _141  and  _144
REMARK   53  A    between atoms: _144  and  _145
REMARK   54  A    between atoms: _148  and  _150
REMARK   55  A    between atoms: _150  and  _151
REMARK   56  A    between atoms: _150  and  _153
REMARK   57  A    between atoms: _156  and  _158
REMARK   58  A    between atoms: _158  and  _159
REMARK   59  A    between atoms: _158  and  _161
REMARK   60  A    between atoms: _164  and  _166
REMARK   61  A    between atoms: _166  and  _167
REMARK   62  A    between atoms: _166  and  _169
REMARK   63  A    between atoms: _169  and  _170
REMARK   64  A    between atoms: _174  and  ZN_380
REMARK   65  A    between atoms: _175  and  _177
REMARK   66  A    between atoms: _177  and  _178
REMARK   67  A    between atoms: _177  and  _180
REMARK   68  A    between atoms: _180  and  _181
REMARK   69  A    between atoms: _181  and  _182
REMARK   70  A    between atoms: _185  and  _187
REMARK   71  A    between atoms: _187  and  _188
REMARK   72  A    between atoms: _187  and  _190
REMARK   73  A    between atoms: _190  and  _191
REMARK   74  A    between atoms: _194  and  _196
REMARK   75  A    between atoms: _196  and  _197
REMARK   76  A    between atoms: _196  and  _199
REMARK   77  A    between atoms: _199  and  _200
REMARK   78  A    between atoms: _204  and  ZN_380
REMARK   79  A    between atoms: _205  and  _207
REMARK   80  A    between atoms: _207  and  _208
REMARK   81  A    between atoms: _207  and  _210
REMARK   82  A    between atoms: _210  and  _211
REMARK   83  A    between atoms: _216  and  _217
REMARK   84  A    between atoms: _219  and  _221
REMARK   85  A    between atoms: _221  and  _222
REMARK   86  A    between atoms: _224  and  _226
REMARK   87  A    between atoms: _226  and  _227
REMARK   88  A    between atoms: _226  and  _229
REMARK   89  A    between atoms: _229  and  _230
REMARK   90  A    between atoms: _235  and  _237
REMARK   91  A    between atoms: _237  and  _238
REMARK   92  A    between atoms: _237  and  _240
REMARK   93  A    between atoms: _240  and  _241
REMARK   94  A    between atoms: _241  and  _242
REMARK   95  A    between atoms: _242  and  _243
REMARK   96  A    between atoms: _243  and  ZN_380
REMARK   97  A    between atoms: _245  and  _247
REMARK   98  A    between atoms: _247  and  _248
REMARK   99  A    between atoms: _247  and  _250
REMARK  100  A    between atoms: _250  and  _251
REMARK  101  A    between atoms: _253  and  _255
REMARK  102  A    between atoms: _255  and  _256
REMARK  103  A    between atoms: _255  and  _258
REMARK  104  A    between atoms: _258  and  _259
REMARK  105  A    between atoms: _262  and  _264
REMARK  106  A    between atoms: _264  and  _265
REMARK  107  A    between atoms: _264  and  _267
REMARK  108  A    between atoms: _267  and  _268
REMARK  109  A    between atoms: _271  and  _273
REMARK  110  A    between atoms: _273  and  _274
REMARK  111  A    between atoms: _276  and  _278
REMARK  112  A    between atoms: _278  and  _279
REMARK  113  A    between atoms: _278  and  _281
REMARK  114  A    between atoms: _284  and  _286
REMARK  115  A    between atoms: _286  and  _287
REMARK  116  A    between atoms: _286  and  _289
REMARK  117  A    between atoms: _289  and  _290
REMARK  118  A    between atoms: _295  and  _296
REMARK  119  A    between atoms: _298  and  _300
REMARK  120  A    between atoms: _300  and  _301
REMARK  121  A    between atoms: _300  and  _303
REMARK  122  A    between atoms: _303  and  _304
REMARK  123  A    between atoms: _307  and  _309
REMARK  124  A    between atoms: _309  and  _310
REMARK  125  A    between atoms: _309  and  _312
REMARK  126  A    between atoms: _312  and  _313
REMARK  127  A    between atoms: _313  and  _314
REMARK  128  A    between atoms: _314  and  _315
REMARK  129  A    between atoms: _324  and  _326
REMARK  130  A    between atoms: _326  and  _327
REMARK  131  A    between atoms: _326  and  _329
REMARK  132  A    between atoms: _329  and  _330
REMARK  133  A    between atoms: _333  and  _335
REMARK  134  A    between atoms: _335  and  _336
REMARK  135  A    between atoms: _335  and  _338
REMARK  136  A    between atoms: _338  and  _339
REMARK  137  A    between atoms: _344  and  _346
REMARK  138  A    between atoms: _346  and  _347
REMARK  139  A    between atoms: _346  and  _349
REMARK  140  A    between atoms: _352  and  _354
REMARK  141  A    between atoms: _354  and  _355
REMARK  142  A    between atoms: _354  and  _357
REMARK  143  A    between atoms: _357  and  _358
REMARK  144  A    between atoms: _363  and  _365
REMARK  145  A    between atoms: _365  and  _366
REMARK  146  A    between atoms: _365  and  _368
REMARK  147  A    between atoms: _368  and  _369
REMARK  148  A    between atoms: _372  and  _374
REMARK  149  A    between atoms: _374  and  _375
REMARK  150  A    between atoms: _374  and  _377
REMARK  151  A    between atoms: _377  and  _378
REMARK                            x       y       z     vdW  Elec       q    Type
REMARK                         _______ _______ _______ _____ _____    ______ ____
ROOT
ATOM      1  CA  GLY A   1      57.848  18.573 -15.344  0.00  0.00    +0.156 C 
ENDROOT
BRANCH   1   2
ATOM      2  N   GLY A   1      58.661  18.677 -16.591  0.00  0.00    -0.238 NA
ATOM      3  H   GLY A   1      58.631  17.898 -17.279  0.00  0.00    +0.142 HD
ENDBRANCH   1   2
BRANCH   1   4
ATOM      4  C   GLY A   1      58.696  18.396 -14.024  0.00  0.00    +0.226 C 
ATOM      5  O   GLY A   1      58.336  18.813 -12.919  0.00  0.00    -0.287 OA
ENDBRANCH   1   4
TORSDOF 2
REMARK  Name = ../refined-set-2016/1tlp/1tlp_pocket.pdb
REMARK  151 active torsions:
REMARK  status: ('A' for Active; 'I' for Inactive)
REMARK    1  A    between atoms: _1  and  _3
REMARK    2  A    between atoms: _3  and  _4
REMARK    3  A    between atoms: _3  and  _6
REMARK    4  A    between atoms: _6  and  _7
REMARK    5  A    between atoms: _12  and  _13
REMARK    6  A    between atoms: _15  and  _17
REMARK    7  A    between atoms: _17  and  _18
REMARK    8  A    between atoms: _17  and  _20
REMARK    9  A    between atoms: _20  and  _21
REMARK   10  A    between atoms: _26  and  _28
REMARK   11  A    between atoms: _28  and  _29
REMARK   12  A    between atoms: _28  and  _31
REMARK   13  A    between atoms: _31  and  _32
REMARK   14  A    between atoms: _37  and  _39
REMARK   15  A    between atoms: _39  and  _40
REMARK   16  A    between atoms: _43  and  _45
REMARK   17  A    between atoms: _45  and  _46
REMARK   18  A    between atoms: _45  and  _48
REMARK   19  A    between atoms: _48  and  _49
REMARK   20  A    between atoms: _55  and  _57
REMARK   21  A    between atoms: _57  and  _58
REMARK   22  A    between atoms: _57  and  _60
REMARK   23  A    between atoms: _60  and  _61
REMARK   24  A    between atoms: _71  and  _73
REMARK   25  A    between atoms: _73  and  _74
REMARK   26  A    between atoms: _73  and  _76
REMARK   27  A    between atoms: _76  and  _77
REMARK   28  A    between atoms: _82  and  _84
REMARK   29  A    between atoms: _84  and  _85
REMARK   30  A    between atoms: _84  and  _87
REMARK   31  A    between atoms: _90  and  _92
REMARK   32  A    between atoms: _92  and  _93
REMARK   33  A    between atoms: _92  and  _95
REMARK   34  A    between atoms: _95  and  _96
REMARK   35  A    between atoms: _101  and  _102
REMARK   36  A    between atoms: _104  and  _106
REMARK   37  A    between atoms: _106  and  _107
REMARK   38  A    between atoms: _109  and  _111
REMARK   39  A    between atoms: _111  and  _112
REMARK   40  A    between atoms: _111  and  _114
REMARK   41  A    between atoms: _114  and  _115
REMARK   42  A    between atoms: _118  and  _120
REMARK   43  A    between atoms: _120  and  _121
REMARK   44  A    between atoms: _120  and  _123
REMARK   45  A    between atoms: _123  and  _124
REMARK   46  A    between atoms: _130  and  _132
REMARK   47  A    between atoms: _132  and  _133
REMARK   48  A    between atoms: _132  and  _135
REMARK   49  A    between atoms: _135  and  _136
REMARK   50  A    between atoms: _139  and  _141
REMARK   51  A    between atoms: _141  and  _142
REMARK   52  A    between atoms: _141  and  _144
REMARK   53  A    between atoms: _144  and  _145
REMARK   54  A    between atoms: _148  and  _150
REMARK   55  A    between atoms: _150  and  _151
REMARK   56  A    between atoms: _150  and  _153
REMARK   57  A    between atoms: _156  and  _158
REMARK   58  A    between atoms: _158  and  _159
REMARK   59  A    between atoms: _158  and  _161
REMARK   60  A    between atoms: _164  and  _166
REMARK   61  A    between atoms: _166  and  _167
REMARK   62  A    between atoms: _166  and  _169
REMARK   63  A    between atoms: _169  and  _170
REMARK   64  A    between atoms: _174  and  ZN_380
REMARK   65  A    between atoms: _175  and  _177
REMARK   66  A    between atoms: _177  and  _178
REMARK   67  A    between atoms: _177  and  _180
REMARK   68  A    between atoms: _180  and  _181
REMARK   69  A    between atoms: _181  and  _182
REMARK   70  A    between atoms: _185  and  _187
REMARK   71  A    between atoms: _187  and  _188
REMARK   72  A    between atoms: _187  and  _190
REMARK   73  A    between atoms: _190  and  _191
REMARK   74  A    between atoms: _194  and  _196
REMARK   75  A    between atoms: _196  and  _197
REMARK   76  A    between atoms: _196  and  _199
REMARK   77  A    between atoms: _199  and  _200
REMARK   78  A    between atoms: _204  and  ZN_380
REMARK   79  A    between atoms: _205  and  _207
REMARK   80  A    between atoms: _207  and  _208
REMARK   81  A    between atoms: _207  and  _210
REMARK   82  A    between atoms: _210  and  _211
REMARK   83  A    between atoms: _216  and  _217
REMARK   84  A    between atoms: _219  and  _221
REMARK   85  A    between atoms: _221  and  _222
REMARK   86  A    between atoms: _224  and  _226
REMARK   87  A    between atoms: _226  and  _227
REMARK   88  A    between atoms: _226  and  _229
REMARK   89  A    between atoms: _229  and  _230
REMARK   90  A    between atoms: _235  and  _237
REMARK   91  A    between atoms: _237  and  _238
REMARK   92  A    between atoms: _237  and  _240
REMARK   93  A    between atoms: _240  and  _241
REMARK   94  A    between atoms: _241  and  _242
REMARK   95  A    between atoms: _242  and  _243
REMARK   96  A    between atoms: _243  and  ZN_380
REMARK   97  A    between atoms: _245  and  _247
REMARK   98  A    between atoms: _247  and  _248
REMARK   99  A    between atoms: _247  and  _250
REMARK  100  A    between atoms: _250  and  _251
REMARK  101  A    between atoms: _253  and  _255
REMARK  102  A    between atoms: _255  and  _256
REMARK  103  A    between atoms: _255  and  _258
REMARK  104  A    between atoms: _258  and  _259
REMARK  105  A    between atoms: _262  and  _264
REMARK  106  A    between atoms: _264  and  _265
REMARK  107  A    between atoms: _264  and  _267
REMARK  108  A    between atoms: _267  and  _268
REMARK  109  A    between atoms: _271  and  _273
REMARK  110  A    between atoms: _273  and  _274
REMARK  111  A    between atoms: _276  and  _278
REMARK  112  A    between atoms: _278  and  _279
REMARK  113  A    between atoms: _278  and  _281
REMARK  114  A    between atoms: _284  and  _286
REMARK  115  A    between atoms: _286  and  _287
REMARK  116  A    between atoms: _286  and  _289
REMARK  117  A    between atoms: _289  and  _290
REMARK  118  A    between atoms: _295  and  _296
REMARK  119  A    between atoms: _298  and  _300
REMARK  120  A    between atoms: _300  and  _301
REMARK  121  A    between atoms: _300  and  _303
REMARK  122  A    between atoms: _303  and  _304
REMARK  123  A    between atoms: _307  and  _309
REMARK  124  A    between atoms: _309  and  _310
REMARK  125  A    between atoms: _309  and  _312
REMARK  126  A    between atoms: _312  and  _313
REMARK  127  A    between atoms: _313  and  _314
REMARK  128  A    between atoms: _314  and  _315
REMARK  129  A    between atoms: _324  and  _326
REMARK  130  A    between atoms: _326  and  _327
REMARK  131  A    between atoms: _326  and  _329
REMARK  132  A    between atoms: _329  and  _330
REMARK  133  A    between atoms: _333  and  _335
REMARK  134  A    between atoms: _335  and  _336
REMARK  135  A    between atoms: _335  and  _338
REMARK  136  A    between atoms: _338  and  _339
REMARK  137  A    between atoms: _344  and  _346
REMARK  138  A    between atoms: _346  and  _347
REMARK  139  A    between atoms: _346  and  _349
REMARK  140  A    between atoms: _352  and  _354
REMARK  141  A    between atoms: _354  and  _355
REMARK  142  A    between atoms: _354  and  _357
REMARK  143  A    between atoms: _357  and  _358
REMARK  144  A    between atoms: _363  and  _365
REMARK  145  A    between atoms: _365  and  _366
REMARK  146  A    between atoms: _365  and  _368
REMARK  147  A    between atoms: _368  and  _369
REMARK  148  A    between atoms: _372  and  _374
REMARK  149  A    between atoms: _374  and  _375
REMARK  150  A    between atoms: _374  and  _377
REMARK  151  A    between atoms: _377  and  _378
REMARK                            x       y       z     vdW  Elec       q    Type
REMARK                         _______ _______ _______ _____ _____    ______ ____
ROOT
ATOM      1  C   SER A   1      59.205  24.318  -5.190  0.00  0.00    +0.241 C 
ATOM      2  O   SER A   1      58.839  24.924  -4.191  0.00  0.00    -0.274 OA
ATOM      3  N   ASP A   2      60.072  23.302  -5.173  0.00  0.00    -0.298 N 
ATOM      4  H   ASP A   2      60.240  22.805  -6.071  0.00  0.00    +0.150 HD
ENDROOT
BRANCH   1   5
ATOM      5  CA  SER A   1      58.608  24.650  -6.563  0.00  0.00    +0.174 C 
BRANCH   5   6
ATOM      6  N   SER A   1      59.558  24.536  -7.661  0.00  0.00    -0.236 NA
ATOM      7  H   SER A   1      59.378  23.850  -8.422  0.00  0.00    +0.142 HD
ENDBRANCH   5   6
BRANCH   5   8
ATOM      8  CB  SER A   1      57.314  23.827  -6.795  0.00  0.00    +0.163 C 
BRANCH   8   9
ATOM      9  OG  SER A   1      56.405  24.629  -7.534  0.00  0.00    -0.380 OA
ATOM     10  H   SER A   1      56.813  24.874  -8.402  0.00  0.00    +0.211 HD
ENDBRANCH   8   9
ENDBRANCH   5   8
ENDBRANCH   1   5
BRANCH   3  11
ATOM     11  CA  ASP A   2      60.801  22.832  -4.007  0.00  0.00    +0.148 C 
BRANCH  11  12
ATOM     12  C   ASP A   2      61.869  23.840  -3.632  0.00  0.00    +0.227 C 
ATOM     13  O   ASP A   2      61.994  24.130  -2.449  0.00  0.00    -0.286 OA
ENDBRANCH  11  12
BRANCH  11  14
ATOM     14  CB  ASP A   2      61.466  21.450  -4.176  0.00  0.00    +0.142 C 
BRANCH  14  15
ATOM     15  CG  ASP A   2      60.488  20.320  -4.107  0.00  0.00    +0.367 C 
ATOM     16  OD2 ASP A   2      59.371  20.549  -3.663  0.00  0.00    -0.246 OA
ATOM     17  OD1 ASP A   2      60.909  19.223  -4.431  0.00  0.00    -0.246 OA
ENDBRANCH  14  15
ENDBRANCH  11  14
ENDBRANCH   3  11
TORSDOF 8
REMARK  Name = ../refined-set-2016/1tlp/1tlp_pocket.pdb
REMARK  151 active torsions:
REMARK  status: ('A' for Active; 'I' for Inactive)
REMARK    1  A    between atoms: _1  and  _3
REMARK    2  A    between atoms: _3  and  _4
REMARK    3  A    between atoms: _3  and  _6
REMARK    4  A    between atoms: _6  and  _7
REMARK    5  A    between atoms: _12  and  _13
REMARK    6  A    between atoms: _15  and  _17
REMARK    7  A    between atoms: _17  and  _18
REMARK    8  A    between atoms: _17  and  _20
REMARK    9  A    between atoms: _20  and  _21
REMARK   10  A    between atoms: _26  and  _28
REMARK   11  A    between atoms: _28  and  _29
REMARK   12  A    between atoms: _28  and  _31
REMARK   13  A    between atoms: _31  and  _32
REMARK   14  A    between atoms: _37  and  _39
REMARK   15  A    between atoms: _39  and  _40
REMARK   16  A    between atoms: _43  and  _45
REMARK   17  A    between atoms: _45  and  _46
REMARK   18  A    between atoms: _45  and  _48
REMARK   19  A    between atoms: _48  and  _49
REMARK   20  A    between atoms: _55  and  _57
REMARK   21  A    between atoms: _57  and  _58
REMARK   22  A    between atoms: _57  and  _60
REMARK   23  A    between atoms: _60  and  _61
REMARK   24  A    between atoms: _71  and  _73
REMARK   25  A    between atoms: _73  and  _74
REMARK   26  A    between atoms: _73  and  _76
REMARK   27  A    between atoms: _76  and  _77
REMARK   28  A    between atoms: _82  and  _84
REMARK   29  A    between atoms: _84  and  _85
REMARK   30  A    between atoms: _84  and  _87
REMARK   31  A    between atoms: _90  and  _92
REMARK   32  A    between atoms: _92  and  _93
REMARK   33  A    between atoms: _92  and  _95
REMARK   34  A    between atoms: _95  and  _96
REMARK   35  A    between atoms: _101  and  _102
REMARK   36  A    between atoms: _104  and  _106
REMARK   37  A    between atoms: _106  and  _107
REMARK   38  A    between atoms: _109  and  _111
REMARK   39  A    between atoms: _111  and  _112
REMARK   40  A    between atoms: _111  and  _114
REMARK   41  A    between atoms: _114  and  _115
REMARK   42  A    between atoms: _118  and  _120
REMARK   43  A    between atoms: _120  and  _121
REMARK   44  A    between atoms: _120  and  _123
REMARK   45  A    between atoms: _123  and  _124
REMARK   46  A    between atoms: _130  and  _132
REMARK   47  A    between atoms: _132  and  _133
REMARK   48  A    between atoms: _132  and  _135
REMARK   49  A    between atoms: _135  and  _136
REMARK   50  A    between atoms: _139  and  _141
REMARK   51  A    between atoms: _141  and  _142
REMARK   52  A    between atoms: _141  and  _144
REMARK   53  A    between atoms: _144  and  _145
REMARK   54  A    between atoms: _148  and  _150
REMARK   55  A    between atoms: _150  and  _151
REMARK   56  A    between atoms: _150  and  _153
REMARK   57  A    between atoms: _156  and  _158
REMARK   58  A    between atoms: _158  and  _159
REMARK   59  A    between atoms: _158  and  _161
REMARK   60  A    between atoms: _164  and  _166
REMARK   61  A    between atoms: _166  and  _167
REMARK   62  A    between atoms: _166  and  _169
REMARK   63  A    between atoms: _169  and  _170
REMARK   64  A    between atoms: _174  and  ZN_380
REMARK   65  A    between atoms: _175  and  _177
REMARK   66  A    between atoms: _177  and  _178
REMARK   67  A    between atoms: _177  and  _180
REMARK   68  A    between atoms: _180  and  _181
REMARK   69  A    between atoms: _181  and  _182
REMARK   70  A    between atoms: _185  and  _187
REMARK   71  A    between atoms: _187  and  _188
REMARK   72  A    between atoms: _187  and  _190
REMARK   73  A    between atoms: _190  and  _191
REMARK   74  A    between atoms: _194  and  _196
REMARK   75  A    between atoms: _196  and  _197
REMARK   76  A    between atoms: _196  and  _199
REMARK   77  A    between atoms: _199  and  _200
REMARK   78  A    between atoms: _204  and  ZN_380
REMARK   79  A    between atoms: _205  and  _207
REMARK   80  A    between atoms: _207  and  _208
REMARK   81  A    between atoms: _207  and  _210
REMARK   82  A    between atoms: _210  and  _211
REMARK   83  A    between atoms: _216  and  _217
REMARK   84  A    between atoms: _219  and  _221
REMARK   85  A    between atoms: _221  and  _222
REMARK   86  A    between atoms: _224  and  _226
REMARK   87  A    between atoms: _226  and  _227
REMARK   88  A    between atoms: _226  and  _229
REMARK   89  A    between atoms: _229  and  _230
REMARK   90  A    between atoms: _235  and  _237
REMARK   91  A    between atoms: _237  and  _238
REMARK   92  A    between atoms: _237  and  _240
REMARK   93  A    between atoms: _240  and  _241
REMARK   94  A    between atoms: _241  and  _242
REMARK   95  A    between atoms: _242  and  _243
REMARK   96  A    between atoms: _243  and  ZN_380
REMARK   97  A    between atoms: _245  and  _247
REMARK   98  A    between atoms: _247  and  _248
REMARK   99  A    between atoms: _247  and  _250
REMARK  100  A    between atoms: _250  and  _251
REMARK  101  A    between atoms: _253  and  _255
REMARK  102  A    between atoms: _255  and  _256
REMARK  103  A    between atoms: _255  and  _258
REMARK  104  A    between atoms: _258  and  _259
REMARK  105  A    between atoms: _262  and  _264
REMARK  106  A    between atoms: _264  and  _265
REMARK  107  A    between atoms: _264  and  _267
REMARK  108  A    between atoms: _267  and  _268
REMARK  109  A    between atoms: _271  and  _273
REMARK  110  A    between atoms: _273  and  _274
REMARK  111  A    between atoms: _276  and  _278
REMARK  112  A    between atoms: _278  and  _279
REMARK  113  A    between atoms: _278  and  _281
REMARK  114  A    between atoms: _284  and  _286
REMARK  115  A    between atoms: _286  and  _287
REMARK  116  A    between atoms: _286  and  _289
REMARK  117  A    between atoms: _289  and  _290
REMARK  118  A    between atoms: _295  and  _296
REMARK  119  A    between atoms: _298  and  _300
REMARK  120  A    between atoms: _300  and  _301
REMARK  121  A    between atoms: _300  and  _303
REMARK  122  A    between atoms: _303  and  _304
REMARK  123  A    between atoms: _307  and  _309
REMARK  124  A    between atoms: _309  and  _310
REMARK  125  A    between atoms: _309  and  _312
REMARK  126  A    between atoms: _312  and  _313
REMARK  127  A    between atoms: _313  and  _314
REMARK  128  A    between atoms: _314  and  _315
REMARK  129  A    between atoms: _324  and  _326
REMARK  130  A    between atoms: _326  and  _327
REMARK  131  A    between atoms: _326  and  _329
REMARK  132  A    between atoms: _329  and  _330
REMARK  133  A    between atoms: _333  and  _335
REMARK  134  A    between atoms: _335  and  _336
REMARK  135  A    between atoms: _335  and  _338
REMARK  136  A    between atoms: _338  and  _339
REMARK  137  A    between atoms: _344  and  _346
REMARK  138  A    between atoms: _346  and  _347
REMARK  139  A    between atoms: _346  and  _349
REMARK  140  A    between atoms: _352  and  _354
REMARK  141  A    between atoms: _354  and  _355
REMARK  142  A    between atoms: _354  and  _357
REMARK  143  A    between atoms: _357  and  _358
REMARK  144  A    between atoms: _363  and  _365
REMARK  145  A    between atoms: _365  and  _366
REMARK  146  A    between atoms: _365  and  _368
REMARK  147  A    between atoms: _368  and  _369
REMARK  148  A    between atoms: _372  and  _374
REMARK  149  A    between atoms: _374  and  _375
REMARK  150  A    between atoms: _374  and  _377
REMARK  151  A    between atoms: _377  and  _378
REMARK                            x       y       z     vdW  Elec       q    Type
REMARK                         _______ _______ _______ _____ _____    ______ ____
ROOT
ATOM      1  CA  ILE A   1      60.252  19.061   2.001  0.00  0.00    +0.145 C 
ENDROOT
BRANCH   1   2
ATOM      2  C   ILE A   1      59.096  18.337   2.758  0.00  0.00    +0.238 C 
ATOM      3  N   GLY A   2      58.204  19.162   3.343  0.00  0.00    -0.297 N 
ATOM      4  H   GLY A   2      58.367  20.185   3.250  0.00  0.00    +0.150 HD
ATOM      5  O   ILE A   1      58.960  17.113   2.737  0.00  0.00    -0.274 OA
BRANCH   3   6
ATOM      6  CA  GLY A   2      57.032  18.737   4.094  0.00  0.00    +0.163 C 
BRANCH   6   7
ATOM      7  C   GLY A   2      57.242  18.160   5.496  0.00  0.00    +0.229 C 
ATOM      8  O   GLY A   2      56.328  17.597   6.066  0.00  0.00    -0.286 OA
ENDBRANCH   6   7
ENDBRANCH   3   6
ENDBRANCH   1   2
BRANCH   1   9
ATOM      9  N   ILE A   1      61.620  18.769   2.468  0.00  0.00    -0.238 NA
ATOM     10  H   ILE A   1      61.972  17.796   2.364  0.00  0.00    +0.142 HD
ENDBRANCH   1   9
BRANCH   1  11
ATOM     11  CB  ILE A   1      60.025  18.963   0.460  0.00  0.00    +0.025 C 
ATOM     12  CG2 ILE A   1      58.565  19.311   0.024  0.00  0.00    +0.002 C 
BRANCH  11  13
ATOM     13  CG1 ILE A   1      61.084  19.757  -0.348  0.00  0.00    +0.002 C 
ATOM     14  CD1 ILE A   1      61.168  21.267  -0.102  0.00  0.00    +0.000 C 
ENDBRANCH  11  13
ENDBRANCH   1  11
TORSDOF 6
REMARK  Name = ../refined-set-2016/1tlp/1tlp_pocket.pdb
REMARK  151 active torsions:
REMARK  status: ('A' for Active; 'I' for Inactive)
REMARK    1  A    between atoms: _1  and  _3
REMARK    2  A    between atoms: _3  and  _4
REMARK    3  A    between atoms: _3  and  _6
REMARK    4  A    between atoms: _6  and  _7
REMARK    5  A    between atoms: _12  and  _13
REMARK    6  A    between atoms: _15  and  _17
REMARK    7  A    between atoms: _17  and  _18
REMARK    8  A    between atoms: _17  and  _20
REMARK    9  A    between atoms: _20  and  _21
REMARK   10  A    between atoms: _26  and  _28
REMARK   11  A    between atoms: _28  and  _29
REMARK   12  A    between atoms: _28  and  _31
REMARK   13  A    between atoms: _31  and  _32
REMARK   14  A    between atoms: _37  and  _39
REMARK   15  A    between atoms: _39  and  _40
REMARK   16  A    between atoms: _43  and  _45
REMARK   17  A    between atoms: _45  and  _46
REMARK   18  A    between atoms: _45  and  _48
REMARK   19  A    between atoms: _48  and  _49
REMARK   20  A    between atoms: _55  and  _57
REMARK   21  A    between atoms: _57  and  _58
REMARK   22  A    between atoms: _57  and  _60
REMARK   23  A    between atoms: _60  and  _61
REMARK   24  A    between atoms: _71  and  _73
REMARK   25  A    between atoms: _73  and  _74
REMARK   26  A    between atoms: _73  and  _76
REMARK   27  A    between atoms: _76  and  _77
REMARK   28  A    between atoms: _82  and  _84
REMARK   29  A    between atoms: _84  and  _85
REMARK   30  A    between atoms: _84  and  _87
REMARK   31  A    between atoms: _90  and  _92
REMARK   32  A    between atoms: _92  and  _93
REMARK   33  A    between atoms: _92  and  _95
REMARK   34  A    between atoms: _95  and  _96
REMARK   35  A    between atoms: _101  and  _102
REMARK   36  A    between atoms: _104  and  _106
REMARK   37  A    between atoms: _106  and  _107
REMARK   38  A    between atoms: _109  and  _111
REMARK   39  A    between atoms: _111  and  _112
REMARK   40  A    between atoms: _111  and  _114
REMARK   41  A    between atoms: _114  and  _115
REMARK   42  A    between atoms: _118  and  _120
REMARK   43  A    between atoms: _120  and  _121
REMARK   44  A    between atoms: _120  and  _123
REMARK   45  A    between atoms: _123  and  _124
REMARK   46  A    between atoms: _130  and  _132
REMARK   47  A    between atoms: _132  and  _133
REMARK   48  A    between atoms: _132  and  _135
REMARK   49  A    between atoms: _135  and  _136
REMARK   50  A    between atoms: _139  and  _141
REMARK   51  A    between atoms: _141  and  _142
REMARK   52  A    between atoms: _141  and  _144
REMARK   53  A    between atoms: _144  and  _145
REMARK   54  A    between atoms: _148  and  _150
REMARK   55  A    between atoms: _150  and  _151
REMARK   56  A    between atoms: _150  and  _153
REMARK   57  A    between atoms: _156  and  _158
REMARK   58  A    between atoms: _158  and  _159
REMARK   59  A    between atoms: _158  and  _161
REMARK   60  A    between atoms: _164  and  _166
REMARK   61  A    between atoms: _166  and  _167
REMARK   62  A    between atoms: _166  and  _169
REMARK   63  A    between atoms: _169  and  _170
REMARK   64  A    between atoms: _174  and  ZN_380
REMARK   65  A    between atoms: _175  and  _177
REMARK   66  A    between atoms: _177  and  _178
REMARK   67  A    between atoms: _177  and  _180
REMARK   68  A    between atoms: _180  and  _181
REMARK   69  A    between atoms: _181  and  _182
REMARK   70  A    between atoms: _185  and  _187
REMARK   71  A    between atoms: _187  and  _188
REMARK   72  A    between atoms: _187  and  _190
REMARK   73  A    between atoms: _190  and  _191
REMARK   74  A    between atoms: _194  and  _196
REMARK   75  A    between atoms: _196  and  _197
REMARK   76  A    between atoms: _196  and  _199
REMARK   77  A    between atoms: _199  and  _200
REMARK   78  A    between atoms: _204  and  ZN_380
REMARK   79  A    between atoms: _205  and  _207
REMARK   80  A    between atoms: _207  and  _208
REMARK   81  A    between atoms: _207  and  _210
REMARK   82  A    between atoms: _210  and  _211
REMARK   83  A    between atoms: _216  and  _217
REMARK   84  A    between atoms: _219  and  _221
REMARK   85  A    between atoms: _221  and  _222
REMARK   86  A    between atoms: _224  and  _226
REMARK   87  A    between atoms: _226  and  _227
REMARK   88  A    between atoms: _226  and  _229
REMARK   89  A    between atoms: _229  and  _230
REMARK   90  A    between atoms: _235  and  _237
REMARK   91  A    between atoms: _237  and  _238
REMARK   92  A    between atoms: _237  and  _240
REMARK   93  A    between atoms: _240  and  _241
REMARK   94  A    between atoms: _241  and  _242
REMARK   95  A    between atoms: _242  and  _243
REMARK   96  A    between atoms: _243  and  ZN_380
REMARK   97  A    between atoms: _245  and  _247
REMARK   98  A    between atoms: _247  and  _248
REMARK   99  A    between atoms: _247  and  _250
REMARK  100  A    between atoms: _250  and  _251
REMARK  101  A    between atoms: _253  and  _255
REMARK  102  A    between atoms: _255  and  _256
REMARK  103  A    between atoms: _255  and  _258
REMARK  104  A    between atoms: _258  and  _259
REMARK  105  A    between atoms: _262  and  _264
REMARK  106  A    between atoms: _264  and  _265
REMARK  107  A    between atoms: _264  and  _267
REMARK  108  A    between atoms: _267  and  _268
REMARK  109  A    between atoms: _271  and  _273
REMARK  110  A    between atoms: _273  and  _274
REMARK  111  A    between atoms: _276  and  _278
REMARK  112  A    between atoms: _278  and  _279
REMARK  113  A    between atoms: _278  and  _281
REMARK  114  A    between atoms: _284  and  _286
REMARK  115  A    between atoms: _286  and  _287
REMARK  116  A    between atoms: _286  and  _289
REMARK  117  A    between atoms: _289  and  _290
REMARK  118  A    between atoms: _295  and  _296
REMARK  119  A    between atoms: _298  and  _300
REMARK  120  A    between atoms: _300  and  _301
REMARK  121  A    between atoms: _300  and  _303
REMARK  122  A    between atoms: _303  and  _304
REMARK  123  A    between atoms: _307  and  _309
REMARK  124  A    between atoms: _309  and  _310
REMARK  125  A    between atoms: _309  and  _312
REMARK  126  A    between atoms: _312  and  _313
REMARK  127  A    between atoms: _313  and  _314
REMARK  128  A    between atoms: _314  and  _315
REMARK  129  A    between atoms: _324  and  _326
REMARK  130  A    between atoms: _326  and  _327
REMARK  131  A    between atoms: _326  and  _329
REMARK  132  A    between atoms: _329  and  _330
REMARK  133  A    between atoms: _333  and  _335
REMARK  134  A    between atoms: _335  and  _336
REMARK  135  A    between atoms: _335  and  _338
REMARK  136  A    between atoms: _338  and  _339
REMARK  137  A    between atoms: _344  and  _346
REMARK  138  A    between atoms: _346  and  _347
REMARK  139  A    between atoms: _346  and  _349
REMARK  140  A    between atoms: _352  and  _354
REMARK  141  A    between atoms: _354  and  _355
REMARK  142  A    between atoms: _354  and  _357
REMARK  143  A    between atoms: _357  and  _358
REMARK  144  A    between atoms: _363  and  _365
REMARK  145  A    between atoms: _365  and  _366
REMARK  146  A    between atoms: _365  and  _368
REMARK  147  A    between atoms: _368  and  _369
REMARK  148  A    between atoms: _372  and  _374
REMARK  149  A    between atoms: _374  and  _375
REMARK  150  A    between atoms: _374  and  _377
REMARK  151  A    between atoms: _377  and  _378
REMARK                            x       y       z     vdW  Elec       q    Type
REMARK                         _______ _______ _______ _____ _____    ______ ____
ROOT
ATOM      1  CA  TYR A   2      54.354  14.604   7.172  0.00  0.00    +0.141 C 
ENDROOT
BRANCH   1   4
ATOM      2  C   VAL A   1      53.073  16.531   7.826  0.00  0.00    +0.238 C 
ATOM      3  O   VAL A   1      52.059  15.861   7.762  0.00  0.00    -0.274 OA
ATOM      4  N   TYR A   2      54.230  16.017   7.505  0.00  0.00    -0.298 N 
ATOM      5  H   TYR A   2      55.074  16.624   7.487  0.00  0.00    +0.150 HD
BRANCH   2   6
ATOM      6  CA  VAL A   1      53.059  18.005   8.178  0.00  0.00    +0.145 C 
BRANCH   6   7
ATOM      7  CB  VAL A   1      52.206  18.776   7.119  0.00  0.00    +0.025 C 
ATOM      8  CG2 VAL A   1      52.030  20.225   7.603  0.00  0.00    +0.002 C 
ATOM      9  CG1 VAL A   1      52.767  18.705   5.677  0.00  0.00    +0.002 C 
ENDBRANCH   6   7
BRANCH   6  10
ATOM     10  N   VAL A   1      54.401  18.577   8.298  0.00  0.00    -0.238 NA
ATOM     11  H   VAL A   1      55.056  18.526   7.492  0.00  0.00    +0.142 HD
ENDBRANCH   6  10
ENDBRANCH   2   6
ENDBRANCH   1   4
BRANCH   1  12
ATOM     12  C   TYR A   2      54.543  13.731   8.439  0.00  0.00    +0.227 C 
ATOM     13  O   TYR A   2      55.198  14.158   9.372  0.00  0.00    -0.286 OA
ENDBRANCH   1  12
BRANCH   1  14
ATOM     14  CB  TYR A   2      55.540  14.460   6.214  0.00  0.00    +0.054 C 
BRANCH  14  15
ATOM     15  CG  TYR A   2      55.710  13.118   5.554  0.00  0.00    -0.020 A 
ATOM     16  CD2 TYR A   2      56.876  12.421   5.740  0.00  0.00    -0.001 A 
ATOM     17  CE2 TYR A   2      57.091  11.179   5.149  0.00  0.00    +0.036 A 
ATOM     18  CZ  TYR A   2      56.080  10.676   4.312  0.00  0.00    +0.134 A 
ATOM     19  CE1 TYR A   2      54.892  11.410   4.110  0.00  0.00    +0.036 A 
ATOM     20  CD1 TYR A   2      54.716  12.674   4.690  0.00  0.00    -0.001 A 
BRANCH  18  21
ATOM     21  OH  TYR A   2      56.246   9.497   3.698  0.00  0.00    -0.506 OA
ATOM     22  HH  TYR A   2      57.043   9.540   3.113  0.00  0.00    +0.292 HD
ENDBRANCH  18  21
ENDBRANCH  14  15
ENDBRANCH   1  14
TORSDOF 8
REMARK  Name = ../refined-set-2016/1tlp/1tlp_pocket.pdb
REMARK  151 active torsions:
REMARK  status: ('A' for Active; 'I' for Inactive)
REMARK    1  A    between atoms: _1  and  _3
REMARK    2  A    between atoms: _3  and  _4
REMARK    3  A    between atoms: _3  and  _6
REMARK    4  A    between atoms: _6  and  _7
REMARK    5  A    between atoms: _12  and  _13
REMARK    6  A    between atoms: _15  and  _17
REMARK    7  A    between atoms: _17  and  _18
REMARK    8  A    between atoms: _17  and  _20
REMARK    9  A    between atoms: _20  and  _21
REMARK   10  A    between atoms: _26  and  _28
REMARK   11  A    between atoms: _28  and  _29
REMARK   12  A    between atoms: _28  and  _31
REMARK   13  A    between atoms: _31  and  _32
REMARK   14  A    between atoms: _37  and  _39
REMARK   15  A    between atoms: _39  and  _40
REMARK   16  A    between atoms: _43  and  _45
REMARK   17  A    between atoms: _45  and  _46
REMARK   18  A    between atoms: _45  and  _48
REMARK   19  A    between atoms: _48  and  _49
REMARK   20  A    between atoms: _55  and  _57
REMARK   21  A    between atoms: _57  and  _58
REMARK   22  A    between atoms: _57  and  _60
REMARK   23  A    between atoms: _60  and  _61
REMARK   24  A    between atoms: _71  and  _73
REMARK   25  A    between atoms: _73  and  _74
REMARK   26  A    between atoms: _73  and  _76
REMARK   27  A    between atoms: _76  and  _77
REMARK   28  A    between atoms: _82  and  _84
REMARK   29  A    between atoms: _84  and  _85
REMARK   30  A    between atoms: _84  and  _87
REMARK   31  A    between atoms: _90  and  _92
REMARK   32  A    between atoms: _92  and  _93
REMARK   33  A    between atoms: _92  and  _95
REMARK   34  A    between atoms: _95  and  _96
REMARK   35  A    between atoms: _101  and  _102
REMARK   36  A    between atoms: _104  and  _106
REMARK   37  A    between atoms: _106  and  _107
REMARK   38  A    between atoms: _109  and  _111
REMARK   39  A    between atoms: _111  and  _112
REMARK   40  A    between atoms: _111  and  _114
REMARK   41  A    between atoms: _114  and  _115
REMARK   42  A    between atoms: _118  and  _120
REMARK   43  A    between atoms: _120  and  _121
REMARK   44  A    between atoms: _120  and  _123
REMARK   45  A    between atoms: _123  and  _124
REMARK   46  A    between atoms: _130  and  _132
REMARK   47  A    between atoms: _132  and  _133
REMARK   48  A    between atoms: _132  and  _135
REMARK   49  A    between atoms: _135  and  _136
REMARK   50  A    between atoms: _139  and  _141
REMARK   51  A    between atoms: _141  and  _142
REMARK   52  A    between atoms: _141  and  _144
REMARK   53  A    between atoms: _144  and  _145
REMARK   54  A    between atoms: _148  and  _150
REMARK   55  A    between atoms: _150  and  _151
REMARK   56  A    between atoms: _150  and  _153
REMARK   57  A    between atoms: _156  and  _158
REMARK   58  A    between atoms: _158  and  _159
REMARK   59  A    between atoms: _158  and  _161
REMARK   60  A    between atoms: _164  and  _166
REMARK   61  A    between atoms: _166  and  _167
REMARK   62  A    between atoms: _166  and  _169
REMARK   63  A    between atoms: _169  and  _170
REMARK   64  A    between atoms: _174  and  ZN_380
REMARK   65  A    between atoms: _175  and  _177
REMARK   66  A    between atoms: _177  and  _178
REMARK   67  A    between atoms: _177  and  _180
REMARK   68  A    between atoms: _180  and  _181
REMARK   69  A    between atoms: _181  and  _182
REMARK   70  A    between atoms: _185  and  _187
REMARK   71  A    between atoms: _187  and  _188
REMARK   72  A    between atoms: _187  and  _190
REMARK   73  A    between atoms: _190  and  _191
REMARK   74  A    between atoms: _194  and  _196
REMARK   75  A    between atoms: _196  and  _197
REMARK   76  A    between atoms: _196  and  _199
REMARK   77  A    between atoms: _199  and  _200
REMARK   78  A    between atoms: _204  and  ZN_380
REMARK   79  A    between atoms: _205  and  _207
REMARK   80  A    between atoms: _207  and  _208
REMARK   81  A    between atoms: _207  and  _210
REMARK   82  A    between atoms: _210  and  _211
REMARK   83  A    between atoms: _216  and  _217
REMARK   84  A    between atoms: _219  and  _221
REMARK   85  A    between atoms: _221  and  _222
REMARK   86  A    between atoms: _224  and  _226
REMARK   87  A    between atoms: _226  and  _227
REMARK   88  A    between atoms: _226  and  _229
REMARK   89  A    between atoms: _229  and  _230
REMARK   90  A    between atoms: _235  and  _237
REMARK   91  A    between atoms: _237  and  _238
REMARK   92  A    between atoms: _237  and  _240
REMARK   93  A    between atoms: _240  and  _241
REMARK   94  A    between atoms: _241  and  _242
REMARK   95  A    between atoms: _242  and  _243
REMARK   96  A    between atoms: _243  and  ZN_380
REMARK   97  A    between atoms: _245  and  _247
REMARK   98  A    between atoms: _247  and  _248
REMARK   99  A    between atoms: _247  and  _250
REMARK  100  A    between atoms: _250  and  _251
REMARK  101  A    between atoms: _253  and  _255
REMARK  102  A    between atoms: _255  and  _256
REMARK  103  A    between atoms: _255  and  _258
REMARK  104  A    between atoms: _258  and  _259
REMARK  105  A    between atoms: _262  and  _264
REMARK  106  A    between atoms: _264  and  _265
REMARK  107  A    between atoms: _264  and  _267
REMARK  108  A    between atoms: _267  and  _268
REMARK  109  A    between atoms: _271  and  _273
REMARK  110  A    between atoms: _273  and  _274
REMARK  111  A    between atoms: _276  and  _278
REMARK  112  A    between atoms: _278  and  _279
REMARK  113  A    between atoms: _278  and  _281
REMARK  114  A    between atoms: _284  and  _286
REMARK  115  A    between atoms: _286  and  _287
REMARK  116  A    between atoms: _286  and  _289
REMARK  117  A    between atoms: _289  and  _290
REMARK  118  A    between atoms: _295  and  _296
REMARK  119  A    between atoms: _298  and  _300
REMARK  120  A    between atoms: _300  and  _301
REMARK  121  A    between atoms: _300  and  _303
REMARK  122  A    between atoms: _303  and  _304
REMARK  123  A    between atoms: _307  and  _309
REMARK  124  A    between atoms: _309  and  _310
REMARK  125  A    between atoms: _309  and  _312
REMARK  126  A    between atoms: _312  and  _313
REMARK  127  A    between atoms: _313  and  _314
REMARK  128  A    between atoms: _314  and  _315
REMARK  129  A    between atoms: _324  and  _326
REMARK  130  A    between atoms: _326  and  _327
REMARK  131  A    between atoms: _326  and  _329
REMARK  132  A    between atoms: _329  and  _330
REMARK  133  A    between atoms: _333  and  _335
REMARK  134  A    between atoms: _335  and  _336
REMARK  135  A    between atoms: _335  and  _338
REMARK  136  A    between atoms: _338  and  _339
REMARK  137  A    between atoms: _344  and  _346
REMARK  138  A    between atoms: _346  and  _347
REMARK  139  A    between atoms: _346  and  _349
REMARK  140  A    between atoms: _352  and  _354
REMARK  141  A    between atoms: _354  and  _355
REMARK  142  A    between atoms: _354  and  _357
REMARK  143  A    between atoms: _357  and  _358
REMARK  144  A    between atoms: _363  and  _365
REMARK  145  A    between atoms: _365  and  _366
REMARK  146  A    between atoms: _365  and  _368
REMARK  147  A    between atoms: _368  and  _369
REMARK  148  A    between atoms: _372  and  _374
REMARK  149  A    between atoms: _374  and  _375
REMARK  150  A    between atoms: _374  and  _377
REMARK  151  A    between atoms: _377  and  _378
REMARK                            x       y       z     vdW  Elec       q    Type
REMARK                         _______ _______ _______ _____ _____    ______ ____
ROOT
ATOM      1  CA  ARG A   2      61.743  14.595  -0.001  0.00  0.00    +0.137 C 
ENDROOT
BRANCH   1   3
ATOM      2  C   LEU A   1      59.705  13.572   0.955  0.00  0.00    +0.238 C 
ATOM      3  N   ARG A   2      60.588  14.583   0.855  0.00  0.00    -0.298 N 
ATOM      4  H   ARG A   2      60.421  15.423   1.445  0.00  0.00    +0.150 HD
ATOM      5  O   LEU A   1      59.765  12.543   0.275  0.00  0.00    -0.274 OA
BRANCH   2   6
ATOM      6  CA  LEU A   1      58.571  13.767   1.987  0.00  0.00    +0.145 C 
BRANCH   6   7
ATOM      7  N   LEU A   1      59.072  14.344   3.234  0.00  0.00    -0.238 NA
ATOM      8  H   LEU A   1      58.883  15.345   3.443  0.00  0.00    +0.142 HD
ENDBRANCH   6   7
BRANCH   6   9
ATOM      9  CB  LEU A   1      57.490  14.748   1.509  0.00  0.00    +0.026 C 
BRANCH   9  10
ATOM     10  CG  LEU A   1      56.579  14.365   0.346  0.00  0.00    +0.002 C 
ATOM     11  CD2 LEU A   1      55.809  13.122   0.758  0.00  0.00    +0.000 C 
ATOM     12  CD1 LEU A   1      55.566  15.518   0.189  0.00  0.00    +0.000 C 
ENDBRANCH   9  10
ENDBRANCH   6   9
ENDBRANCH   2   6
ENDBRANCH   1   3
BRANCH   1  13
ATOM     13  C   ARG A   2      62.840  15.391   0.682  0.00  0.00    +0.227 C 
ATOM     14  O   ARG A   2      62.545  16.257   1.532  0.00  0.00    -0.286 OA
ENDBRANCH   1  13
BRANCH   1  15
ATOM     15  CB  ARG A   2      61.519  15.327  -1.316  0.00  0.00    +0.031 C 
BRANCH  15  16
ATOM     16  CG  ARG A   2      60.451  14.728  -2.233  0.00  0.00    +0.045 C 
BRANCH  16  17
ATOM     17  CD  ARG A   2      60.330  15.563  -3.517  0.00  0.00    +0.174 C 
BRANCH  17  18
ATOM     18  NE  ARG A   2      59.537  16.828  -3.491  0.00  0.00    -0.265 N 
ATOM     19  HE  ARG A   2      60.068  17.721  -3.454  0.00  0.00    +0.259 HD
ATOM     20  CZ  ARG A   2      58.172  16.913  -3.512  0.00  0.00    +0.342 C 
ATOM     21  NH2 ARG A   2      57.420  15.836  -3.501  0.00  0.00    -0.292 N 
ATOM     22 HH21 ARG A   2      57.861  14.894  -3.476  0.00  0.00    +0.255 HD
ATOM     23 HH22 ARG A   2      56.384  15.925  -3.517  0.00  0.00    +0.255 HD
ATOM     24  NH1 ARG A   2      57.501  18.092  -3.565  0.00  0.00    -0.292 N 
ATOM     25 HH11 ARG A   2      56.461  18.098  -3.579  0.00  0.00    +0.255 HD
ATOM     26 HH12 ARG A   2      58.027  18.989  -3.592  0.00  0.00    +0.255 HD
ENDBRANCH  17  18
ENDBRANCH  16  17
ENDBRANCH  15  16
ENDBRANCH   1  15
TORSDOF 10
REMARK  Name = ../refined-set-2016/1tlp/1tlp_pocket.pdb
REMARK  151 active torsions:
REMARK  status: ('A' for Active; 'I' for Inactive)
REMARK    1  A    between atoms: _1  and  _3
REMARK    2  A    between atoms: _3  and  _4
REMARK    3  A    between atoms: _3  and  _6
REMARK    4  A    between atoms: _6  and  _7
REMARK    5  A    between atoms: _12  and  _13
REMARK    6  A    between atoms: _15  and  _17
REMARK    7  A    between atoms: _17  and  _18
REMARK    8  A    between atoms: _17  and  _20
REMARK    9  A    between atoms: _20  and  _21
REMARK   10  A    between atoms: _26  and  _28
REMARK   11  A    between atoms: _28  and  _29
REMARK   12  A    between atoms: _28  and  _31
REMARK   13  A    between atoms: _31  and  _32
REMARK   14  A    between atoms: _37  and  _39
REMARK   15  A    between atoms: _39  and  _40
REMARK   16  A    between atoms: _43  and  _45
REMARK   17  A    between atoms: _45  and  _46
REMARK   18  A    between atoms: _45  and  _48
REMARK   19  A    between atoms: _48  and  _49
REMARK   20  A    between atoms: _55  and  _57
REMARK   21  A    between atoms: _57  and  _58
REMARK   22  A    between atoms: _57  and  _60
REMARK   23  A    between atoms: _60  and  _61
REMARK   24  A    between atoms: _71  and  _73
REMARK   25  A    between atoms: _73  and  _74
REMARK   26  A    between atoms: _73  and  _76
REMARK   27  A    between atoms: _76  and  _77
REMARK   28  A    between atoms: _82  and  _84
REMARK   29  A    between atoms: _84  and  _85
REMARK   30  A    between atoms: _84  and  _87
REMARK   31  A    between atoms: _90  and  _92
REMARK   32  A    between atoms: _92  and  _93
REMARK   33  A    between atoms: _92  and  _95
REMARK   34  A    between atoms: _95  and  _96
REMARK   35  A    between atoms: _101  and  _102
REMARK   36  A    between atoms: _104  and  _106
REMARK   37  A    between atoms: _106  and  _107
REMARK   38  A    between atoms: _109  and  _111
REMARK   39  A    between atoms: _111  and  _112
REMARK   40  A    between atoms: _111  and  _114
REMARK   41  A    between atoms: _114  and  _115
REMARK   42  A    between atoms: _118  and  _120
REMARK   43  A    between atoms: _120  and  _121
REMARK   44  A    between atoms: _120  and  _123
REMARK   45  A    between atoms: _123  and  _124
REMARK   46  A    between atoms: _130  and  _132
REMARK   47  A    between atoms: _132  and  _133
REMARK   48  A    between atoms: _132  and  _135
REMARK   49  A    between atoms: _135  and  _136
REMARK   50  A    between atoms: _139  and  _141
REMARK   51  A    between atoms: _141  and  _142
REMARK   52  A    between atoms: _141  and  _144
REMARK   53  A    between atoms: _144  and  _145
REMARK   54  A    between atoms: _148  and  _150
REMARK   55  A    between atoms: _150  and  _151
REMARK   56  A    between atoms: _150  and  _153
REMARK   57  A    between atoms: _156  and  _158
REMARK   58  A    between atoms: _158  and  _159
REMARK   59  A    between atoms: _158  and  _161
REMARK   60  A    between atoms: _164  and  _166
REMARK   61  A    between atoms: _166  and  _167
REMARK   62  A    between atoms: _166  and  _169
REMARK   63  A    between atoms: _169  and  _170
REMARK   64  A    between atoms: _174  and  ZN_380
REMARK   65  A    between atoms: _175  and  _177
REMARK   66  A    between atoms: _177  and  _178
REMARK   67  A    between atoms: _177  and  _180
REMARK   68  A    between atoms: _180  and  _181
REMARK   69  A    between atoms: _181  and  _182
REMARK   70  A    between atoms: _185  and  _187
REMARK   71  A    between atoms: _187  and  _188
REMARK   72  A    between atoms: _187  and  _190
REMARK   73  A    between atoms: _190  and  _191
REMARK   74  A    between atoms: _194  and  _196
REMARK   75  A    between atoms: _196  and  _197
REMARK   76  A    between atoms: _196  and  _199
REMARK   77  A    between atoms: _199  and  _200
REMARK   78  A    between atoms: _204  and  ZN_380
REMARK   79  A    between atoms: _205  and  _207
REMARK   80  A    between atoms: _207  and  _208
REMARK   81  A    between atoms: _207  and  _210
REMARK   82  A    between atoms: _210  and  _211
REMARK   83  A    between atoms: _216  and  _217
REMARK   84  A    between atoms: _219  and  _221
REMARK   85  A    between atoms: _221  and  _222
REMARK   86  A    between atoms: _224  and  _226
REMARK   87  A    between atoms: _226  and  _227
REMARK   88  A    between atoms: _226  and  _229
REMARK   89  A    between atoms: _229  and  _230
REMARK   90  A    between atoms: _235  and  _237
REMARK   91  A    between atoms: _237  and  _238
REMARK   92  A    between atoms: _237  and  _240
REMARK   93  A    between atoms: _240  and  _241
REMARK   94  A    between atoms: _241  and  _242
REMARK   95  A    between atoms: _242  and  _243
REMARK   96  A    between atoms: _243  and  ZN_380
REMARK   97  A    between atoms: _245  and  _247
REMARK   98  A    between atoms: _247  and  _248
REMARK   99  A    between atoms: _247  and  _250
REMARK  100  A    between atoms: _250  and  _251
REMARK  101  A    between atoms: _253  and  _255
REMARK  102  A    between atoms: _255  and  _256
REMARK  103  A    between atoms: _255  and  _258
REMARK  104  A    between atoms: _258  and  _259
REMARK  105  A    between atoms: _262  and  _264
REMARK  106  A    between atoms: _264  and  _265
REMARK  107  A    between atoms: _264  and  _267
REMARK  108  A    between atoms: _267  and  _268
REMARK  109  A    between atoms: _271  and  _273
REMARK  110  A    between atoms: _273  and  _274
REMARK  111  A    between atoms: _276  and  _278
REMARK  112  A    between atoms: _278  and  _279
REMARK  113  A    between atoms: _278  and  _281
REMARK  114  A    between atoms: _284  and  _286
REMARK  115  A    between atoms: _286  and  _287
REMARK  116  A    between atoms: _286  and  _289
REMARK  117  A    between atoms: _289  and  _290
REMARK  118  A    between atoms: _295  and  _296
REMARK  119  A    between atoms: _298  and  _300
REMARK  120  A    between atoms: _300  and  _301
REMARK  121  A    between atoms: _300  and  _303
REMARK  122  A    between atoms: _303  and  _304
REMARK  123  A    between atoms: _307  and  _309
REMARK  124  A    between atoms: _309  and  _310
REMARK  125  A    between atoms: _309  and  _312
REMARK  126  A    between atoms: _312  and  _313
REMARK  127  A    between atoms: _313  and  _314
REMARK  128  A    between atoms: _314  and  _315
REMARK  129  A    between atoms: _324  and  _326
REMARK  130  A    between atoms: _326  and  _327
REMARK  131  A    between atoms: _326  and  _329
REMARK  132  A    between atoms: _329  and  _330
REMARK  133  A    between atoms: _333  and  _335
REMARK  134  A    between atoms: _335  and  _336
REMARK  135  A    between atoms: _335  and  _338
REMARK  136  A    between atoms: _338  and  _339
REMARK  137  A    between atoms: _344  and  _346
REMARK  138  A    between atoms: _346  and  _347
REMARK  139  A    between atoms: _346  and  _349
REMARK  140  A    between atoms: _352  and  _354
REMARK  141  A    between atoms: _354  and  _355
REMARK  142  A    between atoms: _354  and  _357
REMARK  143  A    between atoms: _357  and  _358
REMARK  144  A    between atoms: _363  and  _365
REMARK  145  A    between atoms: _365  and  _366
REMARK  146  A    between atoms: _365  and  _368
REMARK  147  A    between atoms: _368  and  _369
REMARK  148  A    between atoms: _372  and  _374
REMARK  149  A    between atoms: _374  and  _375
REMARK  150  A    between atoms: _374  and  _377
REMARK  151  A    between atoms: _377  and  _378
REMARK                            x       y       z     vdW  Elec       q    Type
REMARK                         _______ _______ _______ _____ _____    ______ ____
ROOT
ATOM      1  C   ASP A   1      54.583  11.062 -13.040  0.00  0.00    +0.239 C 
ATOM      2  O   ASP A   1      55.505  11.857 -12.948  0.00  0.00    -0.274 OA
ATOM      3  N   ASN A   2      53.821  10.970 -14.116  0.00  0.00    -0.298 N 
ATOM      4  H   ASN A   2      53.044  10.278 -14.111  0.00  0.00    +0.150 HD
ENDROOT
BRANCH   1   5
ATOM      5  CA  ASP A   1      54.272  10.084 -11.926  0.00  0.00    +0.156 C 
BRANCH   5   6
ATOM      6  N   ASP A   1      54.111   8.730 -12.437  0.00  0.00    -0.238 NA
ATOM      7  H   ASP A   1      53.233   8.226 -12.199  0.00  0.00    +0.142 HD
ENDBRANCH   5   6
BRANCH   5   8
ATOM      8  CB  ASP A   1      55.340  10.082 -10.810  0.00  0.00    +0.140 C 
BRANCH   8   9
ATOM      9  CG  ASP A   1      55.637  11.387 -10.086  0.00  0.00    +0.367 C 
ATOM     10  OD2 ASP A   1      54.707  12.140  -9.746  0.00  0.00    -0.246 OA
ATOM     11  OD1 ASP A   1      56.822  11.543  -9.777  0.00  0.00    -0.246 OA
ENDBRANCH   8   9
ENDBRANCH   5   8
ENDBRANCH   1   5
BRANCH   3  12
ATOM     12  CA  ASN A   2      54.011  11.788 -15.313  0.00  0.00    +0.146 C 
BRANCH  12  13
ATOM     13  C   ASN A   2      55.430  11.722 -15.866  0.00  0.00    +0.227 C 
ATOM     14  O   ASN A   2      55.939  12.703 -16.478  0.00  0.00    -0.286 OA
ENDBRANCH  12  13
BRANCH  12  15
ATOM     15  CB  ASN A   2      53.527  13.244 -15.153  0.00  0.00    +0.112 C 
BRANCH  15  16
ATOM     16  CG  ASN A   2      52.010  13.367 -14.998  0.00  0.00    +0.222 C 
ATOM     17  OD1 ASN A   2      51.502  13.820 -13.947  0.00  0.00    -0.275 OA
ATOM     18  ND2 ASN A   2      51.296  12.898 -16.025  0.00  0.00    -0.329 N 
ATOM     19 HD21 ASN A   2      50.257  12.896 -15.978  0.00  0.00    +0.145 HD
ATOM     20 HD22 ASN A   2      51.779  12.535 -16.871  0.00  0.00    +0.145 HD
ENDBRANCH  15  16
ENDBRANCH  12  15
ENDBRANCH   3  12
TORSDOF 8
REMARK  Name = ../refined-set-2016/1tlp/1tlp_pocket.pdb
REMARK  151 active torsions:
REMARK  status: ('A' for Active; 'I' for Inactive)
REMARK    1  A    between atoms: _1  and  _3
REMARK    2  A    between atoms: _3  and  _4
REMARK    3  A    between atoms: _3  and  _6
REMARK    4  A    between atoms: _6  and  _7
REMARK    5  A    between atoms: _12  and  _13
REMARK    6  A    between atoms: _15  and  _17
REMARK    7  A    between atoms: _17  and  _18
REMARK    8  A    between atoms: _17  and  _20
REMARK    9  A    between atoms: _20  and  _21
REMARK   10  A    between atoms: _26  and  _28
REMARK   11  A    between atoms: _28  and  _29
REMARK   12  A    between atoms: _28  and  _31
REMARK   13  A    between atoms: _31  and  _32
REMARK   14  A    between atoms: _37  and  _39
REMARK   15  A    between atoms: _39  and  _40
REMARK   16  A    between atoms: _43  and  _45
REMARK   17  A    between atoms: _45  and  _46
REMARK   18  A    between atoms: _45  and  _48
REMARK   19  A    between atoms: _48  and  _49
REMARK   20  A    between atoms: _55  and  _57
REMARK   21  A    between atoms: _57  and  _58
REMARK   22  A    between atoms: _57  and  _60
REMARK   23  A    between atoms: _60  and  _61
REMARK   24  A    between atoms: _71  and  _73
REMARK   25  A    between atoms: _73  and  _74
REMARK   26  A    between atoms: _73  and  _76
REMARK   27  A    between atoms: _76  and  _77
REMARK   28  A    between atoms: _82  and  _84
REMARK   29  A    between atoms: _84  and  _85
REMARK   30  A    between atoms: _84  and  _87
REMARK   31  A    between atoms: _90  and  _92
REMARK   32  A    between atoms: _92  and  _93
REMARK   33  A    between atoms: _92  and  _95
REMARK   34  A    between atoms: _95  and  _96
REMARK   35  A    between atoms: _101  and  _102
REMARK   36  A    between atoms: _104  and  _106
REMARK   37  A    between atoms: _106  and  _107
REMARK   38  A    between atoms: _109  and  _111
REMARK   39  A    between atoms: _111  and  _112
REMARK   40  A    between atoms: _111  and  _114
REMARK   41  A    between atoms: _114  and  _115
REMARK   42  A    between atoms: _118  and  _120
REMARK   43  A    between atoms: _120  and  _121
REMARK   44  A    between atoms: _120  and  _123
REMARK   45  A    between atoms: _123  and  _124
REMARK   46  A    between atoms: _130  and  _132
REMARK   47  A    between atoms: _132  and  _133
REMARK   48  A    between atoms: _132  and  _135
REMARK   49  A    between atoms: _135  and  _136
REMARK   50  A    between atoms: _139  and  _141
REMARK   51  A    between atoms: _141  and  _142
REMARK   52  A    between atoms: _141  and  _144
REMARK   53  A    between atoms: _144  and  _145
REMARK   54  A    between atoms: _148  and  _150
REMARK   55  A    between atoms: _150  and  _151
REMARK   56  A    between atoms: _150  and  _153
REMARK   57  A    between atoms: _156  and  _158
REMARK   58  A    between atoms: _158  and  _159
REMARK   59  A    between atoms: _158  and  _161
REMARK   60  A    between atoms: _164  and  _166
REMARK   61  A    between atoms: _166  and  _167
REMARK   62  A    between atoms: _166  and  _169
REMARK   63  A    between atoms: _169  and  _170
REMARK   64  A    between atoms: _174  and  ZN_380
REMARK   65  A    between atoms: _175  and  _177
REMARK   66  A    between atoms: _177  and  _178
REMARK   67  A    between atoms: _177  and  _180
REMARK   68  A    between atoms: _180  and  _181
REMARK   69  A    between atoms: _181  and  _182
REMARK   70  A    between atoms: _185  and  _187
REMARK   71  A    between atoms: _187  and  _188
REMARK   72  A    between atoms: _187  and  _190
REMARK   73  A    between atoms: _190  and  _191
REMARK   74  A    between atoms: _194  and  _196
REMARK   75  A    between atoms: _196  and  _197
REMARK   76  A    between atoms: _196  and  _199
REMARK   77  A    between atoms: _199  and  _200
REMARK   78  A    between atoms: _204  and  ZN_380
REMARK   79  A    between atoms: _205  and  _207
REMARK   80  A    between atoms: _207  and  _208
REMARK   81  A    between atoms: _207  and  _210
REMARK   82  A    between atoms: _210  and  _211
REMARK   83  A    between atoms: _216  and  _217
REMARK   84  A    between atoms: _219  and  _221
REMARK   85  A    between atoms: _221  and  _222
REMARK   86  A    between atoms: _224  and  _226
REMARK   87  A    between atoms: _226  and  _227
REMARK   88  A    between atoms: _226  and  _229
REMARK   89  A    between atoms: _229  and  _230
REMARK   90  A    between atoms: _235  and  _237
REMARK   91  A    between atoms: _237  and  _238
REMARK   92  A    between atoms: _237  and  _240
REMARK   93  A    between atoms: _240  and  _241
REMARK   94  A    between atoms: _241  and  _242
REMARK   95  A    between atoms: _242  and  _243
REMARK   96  A    between atoms: _243  and  ZN_380
REMARK   97  A    between atoms: _245  and  _247
REMARK   98  A    between atoms: _247  and  _248
REMARK   99  A    between atoms: _247  and  _250
REMARK  100  A    between atoms: _250  and  _251
REMARK  101  A    between atoms: _253  and  _255
REMARK  102  A    between atoms: _255  and  _256
REMARK  103  A    between atoms: _255  and  _258
REMARK  104  A    between atoms: _258  and  _259
REMARK  105  A    between atoms: _262  and  _264
REMARK  106  A    between atoms: _264  and  _265
REMARK  107  A    between atoms: _264  and  _267
REMARK  108  A    between atoms: _267  and  _268
REMARK  109  A    between atoms: _271  and  _273
REMARK  110  A    between atoms: _273  and  _274
REMARK  111  A    between atoms: _276  and  _278
REMARK  112  A    between atoms: _278  and  _279
REMARK  113  A    between atoms: _278  and  _281
REMARK  114  A    between atoms: _284  and  _286
REMARK  115  A    between atoms: _286  and  _287
REMARK  116  A    between atoms: _286  and  _289
REMARK  117  A    between atoms: _289  and  _290
REMARK  118  A    between atoms: _295  and  _296
REMARK  119  A    between atoms: _298  and  _300
REMARK  120  A    between atoms: _300  and  _301
REMARK  121  A    between atoms: _300  and  _303
REMARK  122  A    between atoms: _303  and  _304
REMARK  123  A    between atoms: _307  and  _309
REMARK  124  A    between atoms: _309  and  _310
REMARK  125  A    between atoms: _309  and  _312
REMARK  126  A    between atoms: _312  and  _313
REMARK  127  A    between atoms: _313  and  _314
REMARK  128  A    between atoms: _314  and  _315
REMARK  129  A    between atoms: _324  and  _326
REMARK  130  A    between atoms: _326  and  _327
REMARK  131  A    between atoms: _326  and  _329
REMARK  132  A    between atoms: _329  and  _330
REMARK  133  A    between atoms: _333  and  _335
REMARK  134  A    between atoms: _335  and  _336
REMARK  135  A    between atoms: _335  and  _338
REMARK  136  A    between atoms: _338  and  _339
REMARK  137  A    between atoms: _344  and  _346
REMARK  138  A    between atoms: _346  and  _347
REMARK  139  A    between atoms: _346  and  _349
REMARK  140  A    between atoms: _352  and  _354
REMARK  141  A    between atoms: _354  and  _355
REMARK  142  A    between atoms: _354  and  _357
REMARK  143  A    between atoms: _357  and  _358
REMARK  144  A    between atoms: _363  and  _365
REMARK  145  A    between atoms: _365  and  _366
REMARK  146  A    between atoms: _365  and  _368
REMARK  147  A    between atoms: _368  and  _369
REMARK  148  A    between atoms: _372  and  _374
REMARK  149  A    between atoms: _374  and  _375
REMARK  150  A    between atoms: _374  and  _377
REMARK  151  A    between atoms: _377  and  _378
REMARK                            x       y       z     vdW  Elec       q    Type
REMARK                         _______ _______ _______ _____ _____    ______ ____
ROOT
ATOM      1  CA  HIS A   2      58.471  14.124  -8.398  0.00  0.00    +0.155 C 
ENDROOT
BRANCH   1   3
ATOM      2  C   VAL A   1      58.530  14.879 -10.763  0.00  0.00    +0.238 C 
ATOM      3  N   HIS A   2      58.118  14.008  -9.831  0.00  0.00    -0.297 N 
ATOM      4  H   HIS A   2      57.520  13.211 -10.130  0.00  0.00    +0.150 HD
ATOM      5  O   VAL A   1      59.241  15.850 -10.507  0.00  0.00    -0.274 OA
BRANCH   2   6
ATOM      6  CA  VAL A   1      58.147  14.568 -12.210  0.00  0.00    +0.145 C 
BRANCH   6   7
ATOM      7  CB  VAL A   1      56.734  15.014 -12.645  0.00  0.00    +0.025 C 
ATOM      8  CG2 VAL A   1      56.079  16.168 -11.892  0.00  0.00    +0.002 C 
ATOM      9  CG1 VAL A   1      56.713  15.280 -14.132  0.00  0.00    +0.002 C 
ENDBRANCH   6   7
BRANCH   6  10
ATOM     10  N   VAL A   1      58.081  13.162 -12.437  0.00  0.00    -0.238 NA
ATOM     11  H   VAL A   1      57.153  12.761 -12.681  0.00  0.00    +0.142 HD
ENDBRANCH   6  10
ENDBRANCH   2   6
ENDBRANCH   1   3
BRANCH   1  12
ATOM     12  C   HIS A   2      59.686  13.288  -8.016  0.00  0.00    +0.241 C 
ATOM     13  O   HIS A   2      60.165  13.378  -6.901  0.00  0.00    -0.273 OA
ATOM     14  N   ILE A   3      60.114  12.418  -8.950  0.00  0.00    -0.298 N 
ATOM     15  H   ILE A   3      59.587  12.363  -9.845  0.00  0.00    +0.150 HD
BRANCH  14  16
ATOM     16  CA  ILE A   3      61.272  11.549  -8.782  0.00  0.00    +0.137 C 
BRANCH  16  17
ATOM     17  C   ILE A   3      62.503  12.281  -9.275  0.00  0.00    +0.227 C 
ATOM     18  O   ILE A   3      63.407  12.620  -8.528  0.00  0.00    -0.286 OA
ENDBRANCH  16  17
BRANCH  16  19
ATOM     19  CB  ILE A   3      61.091  10.155  -9.504  0.00  0.00    +0.026 C 
ATOM     20  CG2 ILE A   3      62.305   9.244  -9.221  0.00  0.00    +0.002 C 
BRANCH  19  21
ATOM     21  CG1 ILE A   3      59.772   9.457  -9.015  0.00  0.00    +0.002 C 
ATOM     22  CD1 ILE A   3      59.282   8.265  -9.851  0.00  0.00    +0.000 C 
ENDBRANCH  19  21
ENDBRANCH  16  19
ENDBRANCH  14  16
ENDBRANCH   1  12
BRANCH   1  23
ATOM     23  CB  HIS A   2      57.325  13.828  -7.384  0.00  0.00    +0.076 C 
BRANCH  23  24
ATOM     24  CG  HIS A   2      56.103  14.708  -7.533  0.00  0.00    +0.082 A 
ATOM     25  CD2 HIS A   2      55.847  15.926  -6.986  0.00  0.00    +0.115 A 
ATOM     26  NE2 HIS A   2      54.603  16.279  -7.444  0.00  0.00    -0.221 NA
ATOM     27  CE1 HIS A   2      54.173  15.308  -8.259  0.00  0.00    +0.199 A 
ATOM     28  ND1 HIS A   2      55.046  14.329  -8.351  0.00  0.00    -0.227 NA
ENDBRANCH  23  24
ENDBRANCH   1  23
TORSDOF 11
REMARK  Name = ../refined-set-2016/1tlp/1tlp_pocket.pdb
REMARK  151 active torsions:
REMARK  status: ('A' for Active; 'I' for Inactive)
REMARK    1  A    between atoms: _1  and  _3
REMARK    2  A    between atoms: _3  and  _4
REMARK    3  A    between atoms: _3  and  _6
REMARK    4  A    between atoms: _6  and  _7
REMARK    5  A    between atoms: _12  and  _13
REMARK    6  A    between atoms: _15  and  _17
REMARK    7  A    between atoms: _17  and  _18
REMARK    8  A    between atoms: _17  and  _20
REMARK    9  A    between atoms: _20  and  _21
REMARK   10  A    between atoms: _26  and  _28
REMARK   11  A    between atoms: _28  and  _29
REMARK   12  A    between atoms: _28  and  _31
REMARK   13  A    between atoms: _31  and  _32
REMARK   14  A    between atoms: _37  and  _39
REMARK   15  A    between atoms: _39  and  _40
REMARK   16  A    between atoms: _43  and  _45
REMARK   17  A    between atoms: _45  and  _46
REMARK   18  A    between atoms: _45  and  _48
REMARK   19  A    between atoms: _48  and  _49
REMARK   20  A    between atoms: _55  and  _57
REMARK   21  A    between atoms: _57  and  _58
REMARK   22  A    between atoms: _57  and  _60
REMARK   23  A    between atoms: _60  and  _61
REMARK   24  A    between atoms: _71  and  _73
REMARK   25  A    between atoms: _73  and  _74
REMARK   26  A    between atoms: _73  and  _76
REMARK   27  A    between atoms: _76  and  _77
REMARK   28  A    between atoms: _82  and  _84
REMARK   29  A    between atoms: _84  and  _85
REMARK   30  A    between atoms: _84  and  _87
REMARK   31  A    between atoms: _90  and  _92
REMARK   32  A    between atoms: _92  and  _93
REMARK   33  A    between atoms: _92  and  _95
REMARK   34  A    between atoms: _95  and  _96
REMARK   35  A    between atoms: _101  and  _102
REMARK   36  A    between atoms: _104  and  _106
REMARK   37  A    between atoms: _106  and  _107
REMARK   38  A    between atoms: _109  and  _111
REMARK   39  A    between atoms: _111  and  _112
REMARK   40  A    between atoms: _111  and  _114
REMARK   41  A    between atoms: _114  and  _115
REMARK   42  A    between atoms: _118  and  _120
REMARK   43  A    between atoms: _120  and  _121
REMARK   44  A    between atoms: _120  and  _123
REMARK   45  A    between atoms: _123  and  _124
REMARK   46  A    between atoms: _130  and  _132
REMARK   47  A    between atoms: _132  and  _133
REMARK   48  A    between atoms: _132  and  _135
REMARK   49  A    between atoms: _135  and  _136
REMARK   50  A    between atoms: _139  and  _141
REMARK   51  A    between atoms: _141  and  _142
REMARK   52  A    between atoms: _141  and  _144
REMARK   53  A    between atoms: _144  and  _145
REMARK   54  A    between atoms: _148  and  _150
REMARK   55  A    between atoms: _150  and  _151
REMARK   56  A    between atoms: _150  and  _153
REMARK   57  A    between atoms: _156  and  _158
REMARK   58  A    between atoms: _158  and  _159
REMARK   59  A    between atoms: _158  and  _161
REMARK   60  A    between atoms: _164  and  _166
REMARK   61  A    between atoms: _166  and  _167
REMARK   62  A    between atoms: _166  and  _169
REMARK   63  A    between atoms: _169  and  _170
REMARK   64  A    between atoms: _174  and  ZN_380
REMARK   65  A    between atoms: _175  and  _177
REMARK   66  A    between atoms: _177  and  _178
REMARK   67  A    between atoms: _177  and  _180
REMARK   68  A    between atoms: _180  and  _181
REMARK   69  A    between atoms: _181  and  _182
REMARK   70  A    between atoms: _185  and  _187
REMARK   71  A    between atoms: _187  and  _188
REMARK   72  A    between atoms: _187  and  _190
REMARK   73  A    between atoms: _190  and  _191
REMARK   74  A    between atoms: _194  and  _196
REMARK   75  A    between atoms: _196  and  _197
REMARK   76  A    between atoms: _196  and  _199
REMARK   77  A    between atoms: _199  and  _200
REMARK   78  A    between atoms: _204  and  ZN_380
REMARK   79  A    between atoms: _205  and  _207
REMARK   80  A    between atoms: _207  and  _208
REMARK   81  A    between atoms: _207  and  _210
REMARK   82  A    between atoms: _210  and  _211
REMARK   83  A    between atoms: _216  and  _217
REMARK   84  A    between atoms: _219  and  _221
REMARK   85  A    between atoms: _221  and  _222
REMARK   86  A    between atoms: _224  and  _226
REMARK   87  A    between atoms: _226  and  _227
REMARK   88  A    between atoms: _226  and  _229
REMARK   89  A    between atoms: _229  and  _230
REMARK   90  A    between atoms: _235  and  _237
REMARK   91  A    between atoms: _237  and  _238
REMARK   92  A    between atoms: _237  and  _240
REMARK   93  A    between atoms: _240  and  _241
REMARK   94  A    between atoms: _241  and  _242
REMARK   95  A    between atoms: _242  and  _243
REMARK   96  A    between atoms: _243  and  ZN_380
REMARK   97  A    between atoms: _245  and  _247
REMARK   98  A    between atoms: _247  and  _248
REMARK   99  A    between atoms: _247  and  _250
REMARK  100  A    between atoms: _250  and  _251
REMARK  101  A    between atoms: _253  and  _255
REMARK  102  A    between atoms: _255  and  _256
REMARK  103  A    between atoms: _255  and  _258
REMARK  104  A    between atoms: _258  and  _259
REMARK  105  A    between atoms: _262  and  _264
REMARK  106  A    between atoms: _264  and  _265
REMARK  107  A    between atoms: _264  and  _267
REMARK  108  A    between atoms: _267  and  _268
REMARK  109  A    between atoms: _271  and  _273
REMARK  110  A    between atoms: _273  and  _274
REMARK  111  A    between atoms: _276  and  _278
REMARK  112  A    between atoms: _278  and  _279
REMARK  113  A    between atoms: _278  and  _281
REMARK  114  A    between atoms: _284  and  _286
REMARK  115  A    between atoms: _286  and  _287
REMARK  116  A    between atoms: _286  and  _289
REMARK  117  A    between atoms: _289  and  _290
REMARK  118  A    between atoms: _295  and  _296
REMARK  119  A    between atoms: _298  and  _300
REMARK  120  A    between atoms: _300  and  _301
REMARK  121  A    between atoms: _300  and  _303
REMARK  122  A    between atoms: _303  and  _304
REMARK  123  A    between atoms: _307  and  _309
REMARK  124  A    between atoms: _309  and  _310
REMARK  125  A    between atoms: _309  and  _312
REMARK  126  A    between atoms: _312  and  _313
REMARK  127  A    between atoms: _313  and  _314
REMARK  128  A    between atoms: _314  and  _315
REMARK  129  A    between atoms: _324  and  _326
REMARK  130  A    between atoms: _326  and  _327
REMARK  131  A    between atoms: _326  and  _329
REMARK  132  A    between atoms: _329  and  _330
REMARK  133  A    between atoms: _333  and  _335
REMARK  134  A    between atoms: _335  and  _336
REMARK  135  A    between atoms: _335  and  _338
REMARK  136  A    between atoms: _338  and  _339
REMARK  137  A    between atoms: _344  and  _346
REMARK  138  A    between atoms: _346  and  _347
REMARK  139  A    between atoms: _346  and  _349
REMARK  140  A    between atoms: _352  and  _354
REMARK  141  A    between atoms: _354  and  _355
REMARK  142  A    between atoms: _354  and  _357
REMARK  143  A    between atoms: _357  and  _358
REMARK  144  A    between atoms: _363  and  _365
REMARK  145  A    between atoms: _365  and  _366
REMARK  146  A    between atoms: _365  and  _368
REMARK  147  A    between atoms: _368  and  _369
REMARK  148  A    between atoms: _372  and  _374
REMARK  149  A    between atoms: _374  and  _375
REMARK  150  A    between atoms: _374  and  _377
REMARK  151  A    between atoms: _377  and  _378
REMARK                            x       y       z     vdW  Elec       q    Type
REMARK                         _______ _______ _______ _____ _____    ______ ____
ROOT
ATOM      1  CA  SER A   1      63.249  16.591  -9.409  0.00  0.00    +0.163 C 
ENDROOT
BRANCH   1   2
ATOM      2  N   SER A   1      63.051  15.273  -9.982  0.00  0.00    -0.237 NA
ATOM      3  H   SER A   1      62.143  14.793  -9.820  0.00  0.00    +0.142 HD
ENDBRANCH   1   2
BRANCH   1   4
ATOM      4  C   SER A   1      64.443  16.569  -8.474  0.00  0.00    +0.227 C 
ATOM      5  O   SER A   1      65.142  17.543  -8.335  0.00  0.00    -0.287 OA
ENDBRANCH   1   4
BRANCH   1   6
ATOM      6  CB  SER A   1      62.011  17.139  -8.711  0.00  0.00    +0.162 C 
BRANCH   6   7
ATOM      7  OG  SER A   1      61.713  16.184  -7.736  0.00  0.00    -0.380 OA
ATOM      8  H   SER A   1      60.910  16.469  -7.231  0.00  0.00    +0.211 HD
ENDBRANCH   6   7
ENDBRANCH   1   6
TORSDOF 4
REMARK  Name = ../refined-set-2016/1tlp/1tlp_pocket.pdb
REMARK  151 active torsions:
REMARK  status: ('A' for Active; 'I' for Inactive)
REMARK    1  A    between atoms: _1  and  _3
REMARK    2  A    between atoms: _3  and  _4
REMARK    3  A    between atoms: _3  and  _6
REMARK    4  A    between atoms: _6  and  _7
REMARK    5  A    between atoms: _12  and  _13
REMARK    6  A    between atoms: _15  and  _17
REMARK    7  A    between atoms: _17  and  _18
REMARK    8  A    between atoms: _17  and  _20
REMARK    9  A    between atoms: _20  and  _21
REMARK   10  A    between atoms: _26  and  _28
REMARK   11  A    between atoms: _28  and  _29
REMARK   12  A    between atoms: _28  and  _31
REMARK   13  A    between atoms: _31  and  _32
REMARK   14  A    between atoms: _37  and  _39
REMARK   15  A    between atoms: _39  and  _40
REMARK   16  A    between atoms: _43  and  _45
REMARK   17  A    between atoms: _45  and  _46
REMARK   18  A    between atoms: _45  and  _48
REMARK   19  A    between atoms: _48  and  _49
REMARK   20  A    between atoms: _55  and  _57
REMARK   21  A    between atoms: _57  and  _58
REMARK   22  A    between atoms: _57  and  _60
REMARK   23  A    between atoms: _60  and  _61
REMARK   24  A    between atoms: _71  and  _73
REMARK   25  A    between atoms: _73  and  _74
REMARK   26  A    between atoms: _73  and  _76
REMARK   27  A    between atoms: _76  and  _77
REMARK   28  A    between atoms: _82  and  _84
REMARK   29  A    between atoms: _84  and  _85
REMARK   30  A    between atoms: _84  and  _87
REMARK   31  A    between atoms: _90  and  _92
REMARK   32  A    between atoms: _92  and  _93
REMARK   33  A    between atoms: _92  and  _95
REMARK   34  A    between atoms: _95  and  _96
REMARK   35  A    between atoms: _101  and  _102
REMARK   36  A    between atoms: _104  and  _106
REMARK   37  A    between atoms: _106  and  _107
REMARK   38  A    between atoms: _109  and  _111
REMARK   39  A    between atoms: _111  and  _112
REMARK   40  A    between atoms: _111  and  _114
REMARK   41  A    between atoms: _114  and  _115
REMARK   42  A    between atoms: _118  and  _120
REMARK   43  A    between atoms: _120  and  _121
REMARK   44  A    between atoms: _120  and  _123
REMARK   45  A    between atoms: _123  and  _124
REMARK   46  A    between atoms: _130  and  _132
REMARK   47  A    between atoms: _132  and  _133
REMARK   48  A    between atoms: _132  and  _135
REMARK   49  A    between atoms: _135  and  _136
REMARK   50  A    between atoms: _139  and  _141
REMARK   51  A    between atoms: _141  and  _142
REMARK   52  A    between atoms: _141  and  _144
REMARK   53  A    between atoms: _144  and  _145
REMARK   54  A    between atoms: _148  and  _150
REMARK   55  A    between atoms: _150  and  _151
REMARK   56  A    between atoms: _150  and  _153
REMARK   57  A    between atoms: _156  and  _158
REMARK   58  A    between atoms: _158  and  _159
REMARK   59  A    between atoms: _158  and  _161
REMARK   60  A    between atoms: _164  and  _166
REMARK   61  A    between atoms: _166  and  _167
REMARK   62  A    between atoms: _166  and  _169
REMARK   63  A    between atoms: _169  and  _170
REMARK   64  A    between atoms: _174  and  ZN_380
REMARK   65  A    between atoms: _175  and  _177
REMARK   66  A    between atoms: _177  and  _178
REMARK   67  A    between atoms: _177  and  _180
REMARK   68  A    between atoms: _180  and  _181
REMARK   69  A    between atoms: _181  and  _182
REMARK   70  A    between atoms: _185  and  _187
REMARK   71  A    between atoms: _187  and  _188
REMARK   72  A    between atoms: _187  and  _190
REMARK   73  A    between atoms: _190  and  _191
REMARK   74  A    between atoms: _194  and  _196
REMARK   75  A    between atoms: _196  and  _197
REMARK   76  A    between atoms: _196  and  _199
REMARK   77  A    between atoms: _199  and  _200
REMARK   78  A    between atoms: _204  and  ZN_380
REMARK   79  A    between atoms: _205  and  _207
REMARK   80  A    between atoms: _207  and  _208
REMARK   81  A    between atoms: _207  and  _210
REMARK   82  A    between atoms: _210  and  _211
REMARK   83  A    between atoms: _216  and  _217
REMARK   84  A    between atoms: _219  and  _221
REMARK   85  A    between atoms: _221  and  _222
REMARK   86  A    between atoms: _224  and  _226
REMARK   87  A    between atoms: _226  and  _227
REMARK   88  A    between atoms: _226  and  _229
REMARK   89  A    between atoms: _229  and  _230
REMARK   90  A    between atoms: _235  and  _237
REMARK   91  A    between atoms: _237  and  _238
REMARK   92  A    between atoms: _237  and  _240
REMARK   93  A    between atoms: _240  and  _241
REMARK   94  A    between atoms: _241  and  _242
REMARK   95  A    between atoms: _242  and  _243
REMARK   96  A    between atoms: _243  and  ZN_380
REMARK   97  A    between atoms: _245  and  _247
REMARK   98  A    between atoms: _247  and  _248
REMARK   99  A    between atoms: _247  and  _250
REMARK  100  A    between atoms: _250  and  _251
REMARK  101  A    between atoms: _253  and  _255
REMARK  102  A    between atoms: _255  and  _256
REMARK  103  A    between atoms: _255  and  _258
REMARK  104  A    between atoms: _258  and  _259
REMARK  105  A    between atoms: _262  and  _264
REMARK  106  A    between atoms: _264  and  _265
REMARK  107  A    between atoms: _264  and  _267
REMARK  108  A    between atoms: _267  and  _268
REMARK  109  A    between atoms: _271  and  _273
REMARK  110  A    between atoms: _273  and  _274
REMARK  111  A    between atoms: _276  and  _278
REMARK  112  A    between atoms: _278  and  _279
REMARK  113  A    between atoms: _278  and  _281
REMARK  114  A    between atoms: _284  and  _286
REMARK  115  A    between atoms: _286  and  _287
REMARK  116  A    between atoms: _286  and  _289
REMARK  117  A    between atoms: _289  and  _290
REMARK  118  A    between atoms: _295  and  _296
REMARK  119  A    between atoms: _298  and  _300
REMARK  120  A    between atoms: _300  and  _301
REMARK  121  A    between atoms: _300  and  _303
REMARK  122  A    between atoms: _303  and  _304
REMARK  123  A    between atoms: _307  and  _309
REMARK  124  A    between atoms: _309  and  _310
REMARK  125  A    between atoms: _309  and  _312
REMARK  126  A    between atoms: _312  and  _313
REMARK  127  A    between atoms: _313  and  _314
REMARK  128  A    between atoms: _314  and  _315
REMARK  129  A    between atoms: _324  and  _326
REMARK  130  A    between atoms: _326  and  _327
REMARK  131  A    between atoms: _326  and  _329
REMARK  132  A    between atoms: _329  and  _330
REMARK  133  A    between atoms: _333  and  _335
REMARK  134  A    between atoms: _335  and  _336
REMARK  135  A    between atoms: _335  and  _338
REMARK  136  A    between atoms: _338  and  _339
REMARK  137  A    between atoms: _344  and  _346
REMARK  138  A    between atoms: _346  and  _347
REMARK  139  A    between atoms: _346  and  _349
REMARK  140  A    between atoms: _352  and  _354
REMARK  141  A    between atoms: _354  and  _355
REMARK  142  A    between atoms: _354  and  _357
REMARK  143  A    between atoms: _357  and  _358
REMARK  144  A    between atoms: _363  and  _365
REMARK  145  A    between atoms: _365  and  _366
REMARK  146  A    between atoms: _365  and  _368
REMARK  147  A    between atoms: _368  and  _369
REMARK  148  A    between atoms: _372  and  _374
REMARK  149  A    between atoms: _374  and  _375
REMARK  150  A    between atoms: _374  and  _377
REMARK  151  A    between atoms: _377  and  _378
REMARK                            x       y       z     vdW  Elec       q    Type
REMARK                         _______ _______ _______ _____ _____    ______ ____
ROOT
ATOM      1  O   HOH     1      42.789  22.458 -12.689  0.00  0.00    +0.000 OA
ENDROOT
TORSDOF 0
REMARK  Name = ../refined-set-2016/1tlp/1tlp_pocket.pdb
REMARK  151 active torsions:
REMARK  status: ('A' for Active; 'I' for Inactive)
REMARK    1  A    between atoms: _1  and  _3
REMARK    2  A    between atoms: _3  and  _4
REMARK    3  A    between atoms: _3  and  _6
REMARK    4  A    between atoms: _6  and  _7
REMARK    5  A    between atoms: _12  and  _13
REMARK    6  A    between atoms: _15  and  _17
REMARK    7  A    between atoms: _17  and  _18
REMARK    8  A    between atoms: _17  and  _20
REMARK    9  A    between atoms: _20  and  _21
REMARK   10  A    between atoms: _26  and  _28
REMARK   11  A    between atoms: _28  and  _29
REMARK   12  A    between atoms: _28  and  _31
REMARK   13  A    between atoms: _31  and  _32
REMARK   14  A    between atoms: _37  and  _39
REMARK   15  A    between atoms: _39  and  _40
REMARK   16  A    between atoms: _43  and  _45
REMARK   17  A    between atoms: _45  and  _46
REMARK   18  A    between atoms: _45  and  _48
REMARK   19  A    between atoms: _48  and  _49
REMARK   20  A    between atoms: _55  and  _57
REMARK   21  A    between atoms: _57  and  _58
REMARK   22  A    between atoms: _57  and  _60
REMARK   23  A    between atoms: _60  and  _61
REMARK   24  A    between atoms: _71  and  _73
REMARK   25  A    between atoms: _73  and  _74
REMARK   26  A    between atoms: _73  and  _76
REMARK   27  A    between atoms: _76  and  _77
REMARK   28  A    between atoms: _82  and  _84
REMARK   29  A    between atoms: _84  and  _85
REMARK   30  A    between atoms: _84  and  _87
REMARK   31  A    between atoms: _90  and  _92
REMARK   32  A    between atoms: _92  and  _93
REMARK   33  A    between atoms: _92  and  _95
REMARK   34  A    between atoms: _95  and  _96
REMARK   35  A    between atoms: _101  and  _102
REMARK   36  A    between atoms: _104  and  _106
REMARK   37  A    between atoms: _106  and  _107
REMARK   38  A    between atoms: _109  and  _111
REMARK   39  A    between atoms: _111  and  _112
REMARK   40  A    between atoms: _111  and  _114
REMARK   41  A    between atoms: _114  and  _115
REMARK   42  A    between atoms: _118  and  _120
REMARK   43  A    between atoms: _120  and  _121
REMARK   44  A    between atoms: _120  and  _123
REMARK   45  A    between atoms: _123  and  _124
REMARK   46  A    between atoms: _130  and  _132
REMARK   47  A    between atoms: _132  and  _133
REMARK   48  A    between atoms: _132  and  _135
REMARK   49  A    between atoms: _135  and  _136
REMARK   50  A    between atoms: _139  and  _141
REMARK   51  A    between atoms: _141  and  _142
REMARK   52  A    between atoms: _141  and  _144
REMARK   53  A    between atoms: _144  and  _145
REMARK   54  A    between atoms: _148  and  _150
REMARK   55  A    between atoms: _150  and  _151
REMARK   56  A    between atoms: _150  and  _153
REMARK   57  A    between atoms: _156  and  _158
REMARK   58  A    between atoms: _158  and  _159
REMARK   59  A    between atoms: _158  and  _161
REMARK   60  A    between atoms: _164  and  _166
REMARK   61  A    between atoms: _166  and  _167
REMARK   62  A    between atoms: _166  and  _169
REMARK   63  A    between atoms: _169  and  _170
REMARK   64  A    between atoms: _174  and  ZN_380
REMARK   65  A    between atoms: _175  and  _177
REMARK   66  A    between atoms: _177  and  _178
REMARK   67  A    between atoms: _177  and  _180
REMARK   68  A    between atoms: _180  and  _181
REMARK   69  A    between atoms: _181  and  _182
REMARK   70  A    between atoms: _185  and  _187
REMARK   71  A    between atoms: _187  and  _188
REMARK   72  A    between atoms: _187  and  _190
REMARK   73  A    between atoms: _190  and  _191
REMARK   74  A    between atoms: _194  and  _196
REMARK   75  A    between atoms: _196  and  _197
REMARK   76  A    between atoms: _196  and  _199
REMARK   77  A    between atoms: _199  and  _200
REMARK   78  A    between atoms: _204  and  ZN_380
REMARK   79  A    between atoms: _205  and  _207
REMARK   80  A    between atoms: _207  and  _208
REMARK   81  A    between atoms: _207  and  _210
REMARK   82  A    between atoms: _210  and  _211
REMARK   83  A    between atoms: _216  and  _217
REMARK   84  A    between atoms: _219  and  _221
REMARK   85  A    between atoms: _221  and  _222
REMARK   86  A    between atoms: _224  and  _226
REMARK   87  A    between atoms: _226  and  _227
REMARK   88  A    between atoms: _226  and  _229
REMARK   89  A    between atoms: _229  and  _230
REMARK   90  A    between atoms: _235  and  _237
REMARK   91  A    between atoms: _237  and  _238
REMARK   92  A    between atoms: _237  and  _240
REMARK   93  A    between atoms: _240  and  _241
REMARK   94  A    between atoms: _241  and  _242
REMARK   95  A    between atoms: _242  and  _243
REMARK   96  A    between atoms: _243  and  ZN_380
REMARK   97  A    between atoms: _245  and  _247
REMARK   98  A    between atoms: _247  and  _248
REMARK   99  A    between atoms: _247  and  _250
REMARK  100  A    between atoms: _250  and  _251
REMARK  101  A    between atoms: _253  and  _255
REMARK  102  A    between atoms: _255  and  _256
REMARK  103  A    between atoms: _255  and  _258
REMARK  104  A    between atoms: _258  and  _259
REMARK  105  A    between atoms: _262  and  _264
REMARK  106  A    between atoms: _264  and  _265
REMARK  107  A    between atoms: _264  and  _267
REMARK  108  A    between atoms: _267  and  _268
REMARK  109  A    between atoms: _271  and  _273
REMARK  110  A    between atoms: _273  and  _274
REMARK  111  A    between atoms: _276  and  _278
REMARK  112  A    between atoms: _278  and  _279
REMARK  113  A    between atoms: _278  and  _281
REMARK  114  A    between atoms: _284  and  _286
REMARK  115  A    between atoms: _286  and  _287
REMARK  116  A    between atoms: _286  and  _289
REMARK  117  A    between atoms: _289  and  _290
REMARK  118  A    between atoms: _295  and  _296
REMARK  119  A    between atoms: _298  and  _300
REMARK  120  A    between atoms: _300  and  _301
REMARK  121  A    between atoms: _300  and  _303
REMARK  122  A    between atoms: _303  and  _304
REMARK  123  A    between atoms: _307  and  _309
REMARK  124  A    between atoms: _309  and  _310
REMARK  125  A    between atoms: _309  and  _312
REMARK  126  A    between atoms: _312  and  _313
REMARK  127  A    between atoms: _313  and  _314
REMARK  128  A    between atoms: _314  and  _315
REMARK  129  A    between atoms: _324  and  _326
REMARK  130  A    between atoms: _326  and  _327
REMARK  131  A    between atoms: _326  and  _329
REMARK  132  A    between atoms: _329  and  _330
REMARK  133  A    between atoms: _333  and  _335
REMARK  134  A    between atoms: _335  and  _336
REMARK  135  A    between atoms: _335  and  _338
REMARK  136  A    between atoms: _338  and  _339
REMARK  137  A    between atoms: _344  and  _346
REMARK  138  A    between atoms: _346  and  _347
REMARK  139  A    between atoms: _346  and  _349
REMARK  140  A    between atoms: _352  and  _354
REMARK  141  A    between atoms: _354  and  _355
REMARK  142  A    between atoms: _354  and  _357
REMARK  143  A    between atoms: _357  and  _358
REMARK  144  A    between atoms: _363  and  _365
REMARK  145  A    between atoms: _365  and  _366
REMARK  146  A    between atoms: _365  and  _368
REMARK  147  A    between atoms: _368  and  _369
REMARK  148  A    between atoms: _372  and  _374
REMARK  149  A    between atoms: _374  and  _375
REMARK  150  A    between atoms: _374  and  _377
REMARK  151  A    between atoms: _377  and  _378
REMARK                            x       y       z     vdW  Elec       q    Type
REMARK                         _______ _______ _______ _____ _____    ______ ____
ROOT
ATOM      1  O   HOH     1      50.914  14.156 -18.726  0.00  0.00    +0.000 OA
ENDROOT
TORSDOF 0
REMARK  Name = ../refined-set-2016/1tlp/1tlp_pocket.pdb
REMARK  151 active torsions:
REMARK  status: ('A' for Active; 'I' for Inactive)
REMARK    1  A    between atoms: _1  and  _3
REMARK    2  A    between atoms: _3  and  _4
REMARK    3  A    between atoms: _3  and  _6
REMARK    4  A    between atoms: _6  and  _7
REMARK    5  A    between atoms: _12  and  _13
REMARK    6  A    between atoms: _15  and  _17
REMARK    7  A    between atoms: _17  and  _18
REMARK    8  A    between atoms: _17  and  _20
REMARK    9  A    between atoms: _20  and  _21
REMARK   10  A    between atoms: _26  and  _28
REMARK   11  A    between atoms: _28  and  _29
REMARK   12  A    between atoms: _28  and  _31
REMARK   13  A    between atoms: _31  and  _32
REMARK   14  A    between atoms: _37  and  _39
REMARK   15  A    between atoms: _39  and  _40
REMARK   16  A    between atoms: _43  and  _45
REMARK   17  A    between atoms: _45  and  _46
REMARK   18  A    between atoms: _45  and  _48
REMARK   19  A    between atoms: _48  and  _49
REMARK   20  A    between atoms: _55  and  _57
REMARK   21  A    between atoms: _57  and  _58
REMARK   22  A    between atoms: _57  and  _60
REMARK   23  A    between atoms: _60  and  _61
REMARK   24  A    between atoms: _71  and  _73
REMARK   25  A    between atoms: _73  and  _74
REMARK   26  A    between atoms: _73  and  _76
REMARK   27  A    between atoms: _76  and  _77
REMARK   28  A    between atoms: _82  and  _84
REMARK   29  A    between atoms: _84  and  _85
REMARK   30  A    between atoms: _84  and  _87
REMARK   31  A    between atoms: _90  and  _92
REMARK   32  A    between atoms: _92  and  _93
REMARK   33  A    between atoms: _92  and  _95
REMARK   34  A    between atoms: _95  and  _96
REMARK   35  A    between atoms: _101  and  _102
REMARK   36  A    between atoms: _104  and  _106
REMARK   37  A    between atoms: _106  and  _107
REMARK   38  A    between atoms: _109  and  _111
REMARK   39  A    between atoms: _111  and  _112
REMARK   40  A    between atoms: _111  and  _114
REMARK   41  A    between atoms: _114  and  _115
REMARK   42  A    between atoms: _118  and  _120
REMARK   43  A    between atoms: _120  and  _121
REMARK   44  A    between atoms: _120  and  _123
REMARK   45  A    between atoms: _123  and  _124
REMARK   46  A    between atoms: _130  and  _132
REMARK   47  A    between atoms: _132  and  _133
REMARK   48  A    between atoms: _132  and  _135
REMARK   49  A    between atoms: _135  and  _136
REMARK   50  A    between atoms: _139  and  _141
REMARK   51  A    between atoms: _141  and  _142
REMARK   52  A    between atoms: _141  and  _144
REMARK   53  A    between atoms: _144  and  _145
REMARK   54  A    between atoms: _148  and  _150
REMARK   55  A    between atoms: _150  and  _151
REMARK   56  A    between atoms: _150  and  _153
REMARK   57  A    between atoms: _156  and  _158
REMARK   58  A    between atoms: _158  and  _159
REMARK   59  A    between atoms: _158  and  _161
REMARK   60  A    between atoms: _164  and  _166
REMARK   61  A    between atoms: _166  and  _167
REMARK   62  A    between atoms: _166  and  _169
REMARK   63  A    between atoms: _169  and  _170
REMARK   64  A    between atoms: _174  and  ZN_380
REMARK   65  A    between atoms: _175  and  _177
REMARK   66  A    between atoms: _177  and  _178
REMARK   67  A    between atoms: _177  and  _180
REMARK   68  A    between atoms: _180  and  _181
REMARK   69  A    between atoms: _181  and  _182
REMARK   70  A    between atoms: _185  and  _187
REMARK   71  A    between atoms: _187  and  _188
REMARK   72  A    between atoms: _187  and  _190
REMARK   73  A    between atoms: _190  and  _191
REMARK   74  A    between atoms: _194  and  _196
REMARK   75  A    between atoms: _196  and  _197
REMARK   76  A    between atoms: _196  and  _199
REMARK   77  A    between atoms: _199  and  _200
REMARK   78  A    between atoms: _204  and  ZN_380
REMARK   79  A    between atoms: _205  and  _207
REMARK   80  A    between atoms: _207  and  _208
REMARK   81  A    between atoms: _207  and  _210
REMARK   82  A    between atoms: _210  and  _211
REMARK   83  A    between atoms: _216  and  _217
REMARK   84  A    between atoms: _219  and  _221
REMARK   85  A    between atoms: _221  and  _222
REMARK   86  A    between atoms: _224  and  _226
REMARK   87  A    between atoms: _226  and  _227
REMARK   88  A    between atoms: _226  and  _229
REMARK   89  A    between atoms: _229  and  _230
REMARK   90  A    between atoms: _235  and  _237
REMARK   91  A    between atoms: _237  and  _238
REMARK   92  A    between atoms: _237  and  _240
REMARK   93  A    between atoms: _240  and  _241
REMARK   94  A    between atoms: _241  and  _242
REMARK   95  A    between atoms: _242  and  _243
REMARK   96  A    between atoms: _243  and  ZN_380
REMARK   97  A    between atoms: _245  and  _247
REMARK   98  A    between atoms: _247  and  _248
REMARK   99  A    between atoms: _247  and  _250
REMARK  100  A    between atoms: _250  and  _251
REMARK  101  A    between atoms: _253  and  _255
REMARK  102  A    between atoms: _255  and  _256
REMARK  103  A    between atoms: _255  and  _258
REMARK  104  A    between atoms: _258  and  _259
REMARK  105  A    between atoms: _262  and  _264
REMARK  106  A    between atoms: _264  and  _265
REMARK  107  A    between atoms: _264  and  _267
REMARK  108  A    between atoms: _267  and  _268
REMARK  109  A    between atoms: _271  and  _273
REMARK  110  A    between atoms: _273  and  _274
REMARK  111  A    between atoms: _276  and  _278
REMARK  112  A    between atoms: _278  and  _279
REMARK  113  A    between atoms: _278  and  _281
REMARK  114  A    between atoms: _284  and  _286
REMARK  115  A    between atoms: _286  and  _287
REMARK  116  A    between atoms: _286  and  _289
REMARK  117  A    between atoms: _289  and  _290
REMARK  118  A    between atoms: _295  and  _296
REMARK  119  A    between atoms: _298  and  _300
REMARK  120  A    between atoms: _300  and  _301
REMARK  121  A    between atoms: _300  and  _303
REMARK  122  A    between atoms: _303  and  _304
REMARK  123  A    between atoms: _307  and  _309
REMARK  124  A    between atoms: _309  and  _310
REMARK  125  A    between atoms: _309  and  _312
REMARK  126  A    between atoms: _312  and  _313
REMARK  127  A    between atoms: _313  and  _314
REMARK  128  A    between atoms: _314  and  _315
REMARK  129  A    between atoms: _324  and  _326
REMARK  130  A    between atoms: _326  and  _327
REMARK  131  A    between atoms: _326  and  _329
REMARK  132  A    between atoms: _329  and  _330
REMARK  133  A    between atoms: _333  and  _335
REMARK  134  A    between atoms: _335  and  _336
REMARK  135  A    between atoms: _335  and  _338
REMARK  136  A    between atoms: _338  and  _339
REMARK  137  A    between atoms: _344  and  _346
REMARK  138  A    between atoms: _346  and  _347
REMARK  139  A    between atoms: _346  and  _349
REMARK  140  A    between atoms: _352  and  _354
REMARK  141  A    between atoms: _354  and  _355
REMARK  142  A    between atoms: _354  and  _357
REMARK  143  A    between atoms: _357  and  _358
REMARK  144  A    between atoms: _363  and  _365
REMARK  145  A    between atoms: _365  and  _366
REMARK  146  A    between atoms: _365  and  _368
REMARK  147  A    between atoms: _368  and  _369
REMARK  148  A    between atoms: _372  and  _374
REMARK  149  A    between atoms: _374  and  _375
REMARK  150  A    between atoms: _374  and  _377
REMARK  151  A    between atoms: _377  and  _378
REMARK                            x       y       z     vdW  Elec       q    Type
REMARK                         _______ _______ _______ _____ _____    ______ ____
ROOT
ATOM      1  O   HOH     1      48.792  24.222 -13.502  0.00  0.00    +0.000 OA
ENDROOT
TORSDOF 0
REMARK  Name = ../refined-set-2016/1tlp/1tlp_pocket.pdb
REMARK  151 active torsions:
REMARK  status: ('A' for Active; 'I' for Inactive)
REMARK    1  A    between atoms: _1  and  _3
REMARK    2  A    between atoms: _3  and  _4
REMARK    3  A    between atoms: _3  and  _6
REMARK    4  A    between atoms: _6  and  _7
REMARK    5  A    between atoms: _12  and  _13
REMARK    6  A    between atoms: _15  and  _17
REMARK    7  A    between atoms: _17  and  _18
REMARK    8  A    between atoms: _17  and  _20
REMARK    9  A    between atoms: _20  and  _21
REMARK   10  A    between atoms: _26  and  _28
REMARK   11  A    between atoms: _28  and  _29
REMARK   12  A    between atoms: _28  and  _31
REMARK   13  A    between atoms: _31  and  _32
REMARK   14  A    between atoms: _37  and  _39
REMARK   15  A    between atoms: _39  and  _40
REMARK   16  A    between atoms: _43  and  _45
REMARK   17  A    between atoms: _45  and  _46
REMARK   18  A    between atoms: _45  and  _48
REMARK   19  A    between atoms: _48  and  _49
REMARK   20  A    between atoms: _55  and  _57
REMARK   21  A    between atoms: _57  and  _58
REMARK   22  A    between atoms: _57  and  _60
REMARK   23  A    between atoms: _60  and  _61
REMARK   24  A    between atoms: _71  and  _73
REMARK   25  A    between atoms: _73  and  _74
REMARK   26  A    between atoms: _73  and  _76
REMARK   27  A    between atoms: _76  and  _77
REMARK   28  A    between atoms: _82  and  _84
REMARK   29  A    between atoms: _84  and  _85
REMARK   30  A    between atoms: _84  and  _87
REMARK   31  A    between atoms: _90  and  _92
REMARK   32  A    between atoms: _92  and  _93
REMARK   33  A    between atoms: _92  and  _95
REMARK   34  A    between atoms: _95  and  _96
REMARK   35  A    between atoms: _101  and  _102
REMARK   36  A    between atoms: _104  and  _106
REMARK   37  A    between atoms: _106  and  _107
REMARK   38  A    between atoms: _109  and  _111
REMARK   39  A    between atoms: _111  and  _112
REMARK   40  A    between atoms: _111  and  _114
REMARK   41  A    between atoms: _114  and  _115
REMARK   42  A    between atoms: _118  and  _120
REMARK   43  A    between atoms: _120  and  _121
REMARK   44  A    between atoms: _120  and  _123
REMARK   45  A    between atoms: _123  and  _124
REMARK   46  A    between atoms: _130  and  _132
REMARK   47  A    between atoms: _132  and  _133
REMARK   48  A    between atoms: _132  and  _135
REMARK   49  A    between atoms: _135  and  _136
REMARK   50  A    between atoms: _139  and  _141
REMARK   51  A    between atoms: _141  and  _142
REMARK   52  A    between atoms: _141  and  _144
REMARK   53  A    between atoms: _144  and  _145
REMARK   54  A    between atoms: _148  and  _150
REMARK   55  A    between atoms: _150  and  _151
REMARK   56  A    between atoms: _150  and  _153
REMARK   57  A    between atoms: _156  and  _158
REMARK   58  A    between atoms: _158  and  _159
REMARK   59  A    between atoms: _158  and  _161
REMARK   60  A    between atoms: _164  and  _166
REMARK   61  A    between atoms: _166  and  _167
REMARK   62  A    between atoms: _166  and  _169
REMARK   63  A    between atoms: _169  and  _170
REMARK   64  A    between atoms: _174  and  ZN_380
REMARK   65  A    between atoms: _175  and  _177
REMARK   66  A    between atoms: _177  and  _178
REMARK   67  A    between atoms: _177  and  _180
REMARK   68  A    between atoms: _180  and  _181
REMARK   69  A    between atoms: _181  and  _182
REMARK   70  A    between atoms: _185  and  _187
REMARK   71  A    between atoms: _187  and  _188
REMARK   72  A    between atoms: _187  and  _190
REMARK   73  A    between atoms: _190  and  _191
REMARK   74  A    between atoms: _194  and  _196
REMARK   75  A    between atoms: _196  and  _197
REMARK   76  A    between atoms: _196  and  _199
REMARK   77  A    between atoms: _199  and  _200
REMARK   78  A    between atoms: _204  and  ZN_380
REMARK   79  A    between atoms: _205  and  _207
REMARK   80  A    between atoms: _207  and  _208
REMARK   81  A    between atoms: _207  and  _210
REMARK   82  A    between atoms: _210  and  _211
REMARK   83  A    between atoms: _216  and  _217
REMARK   84  A    between atoms: _219  and  _221
REMARK   85  A    between atoms: _221  and  _222
REMARK   86  A    between atoms: _224  and  _226
REMARK   87  A    between atoms: _226  and  _227
REMARK   88  A    between atoms: _226  and  _229
REMARK   89  A    between atoms: _229  and  _230
REMARK   90  A    between atoms: _235  and  _237
REMARK   91  A    between atoms: _237  and  _238
REMARK   92  A    between atoms: _237  and  _240
REMARK   93  A    between atoms: _240  and  _241
REMARK   94  A    between atoms: _241  and  _242
REMARK   95  A    between atoms: _242  and  _243
REMARK   96  A    between atoms: _243  and  ZN_380
REMARK   97  A    between atoms: _245  and  _247
REMARK   98  A    between atoms: _247  and  _248
REMARK   99  A    between atoms: _247  and  _250
REMARK  100  A    between atoms: _250  and  _251
REMARK  101  A    between atoms: _253  and  _255
REMARK  102  A    between atoms: _255  and  _256
REMARK  103  A    between atoms: _255  and  _258
REMARK  104  A    between atoms: _258  and  _259
REMARK  105  A    between atoms: _262  and  _264
REMARK  106  A    between atoms: _264  and  _265
REMARK  107  A    between atoms: _264  and  _267
REMARK  108  A    between atoms: _267  and  _268
REMARK  109  A    between atoms: _271  and  _273
REMARK  110  A    between atoms: _273  and  _274
REMARK  111  A    between atoms: _276  and  _278
REMARK  112  A    between atoms: _278  and  _279
REMARK  113  A    between atoms: _278  and  _281
REMARK  114  A    between atoms: _284  and  _286
REMARK  115  A    between atoms: _286  and  _287
REMARK  116  A    between atoms: _286  and  _289
REMARK  117  A    between atoms: _289  and  _290
REMARK  118  A    between atoms: _295  and  _296
REMARK  119  A    between atoms: _298  and  _300
REMARK  120  A    between atoms: _300  and  _301
REMARK  121  A    between atoms: _300  and  _303
REMARK  122  A    between atoms: _303  and  _304
REMARK  123  A    between atoms: _307  and  _309
REMARK  124  A    between atoms: _309  and  _310
REMARK  125  A    between atoms: _309  and  _312
REMARK  126  A    between atoms: _312  and  _313
REMARK  127  A    between atoms: _313  and  _314
REMARK  128  A    between atoms: _314  and  _315
REMARK  129  A    between atoms: _324  and  _326
REMARK  130  A    between atoms: _326  and  _327
REMARK  131  A    between atoms: _326  and  _329
REMARK  132  A    between atoms: _329  and  _330
REMARK  133  A    between atoms: _333  and  _335
REMARK  134  A    between atoms: _335  and  _336
REMARK  135  A    between atoms: _335  and  _338
REMARK  136  A    between atoms: _338  and  _339
REMARK  137  A    between atoms: _344  and  _346
REMARK  138  A    between atoms: _346  and  _347
REMARK  139  A    between atoms: _346  and  _349
REMARK  140  A    between atoms: _352  and  _354
REMARK  141  A    between atoms: _354  and  _355
REMARK  142  A    between atoms: _354  and  _357
REMARK  143  A    between atoms: _357  and  _358
REMARK  144  A    between atoms: _363  and  _365
REMARK  145  A    between atoms: _365  and  _366
REMARK  146  A    between atoms: _365  and  _368
REMARK  147  A    between atoms: _368  and  _369
REMARK  148  A    between atoms: _372  and  _374
REMARK  149  A    between atoms: _374  and  _375
REMARK  150  A    between atoms: _374  and  _377
REMARK  151  A    between atoms: _377  and  _378
REMARK                            x       y       z     vdW  Elec       q    Type
REMARK                         _______ _______ _______ _____ _____    ______ ____
ROOT
ATOM      1  O   HOH     1      52.368  13.593 -11.229  0.00  0.00    +0.000 OA
ENDROOT
TORSDOF 0
REMARK  Name = ../refined-set-2016/1tlp/1tlp_pocket.pdb
REMARK  151 active torsions:
REMARK  status: ('A' for Active; 'I' for Inactive)
REMARK    1  A    between atoms: _1  and  _3
REMARK    2  A    between atoms: _3  and  _4
REMARK    3  A    between atoms: _3  and  _6
REMARK    4  A    between atoms: _6  and  _7
REMARK    5  A    between atoms: _12  and  _13
REMARK    6  A    between atoms: _15  and  _17
REMARK    7  A    between atoms: _17  and  _18
REMARK    8  A    between atoms: _17  and  _20
REMARK    9  A    between atoms: _20  and  _21
REMARK   10  A    between atoms: _26  and  _28
REMARK   11  A    between atoms: _28  and  _29
REMARK   12  A    between atoms: _28  and  _31
REMARK   13  A    between atoms: _31  and  _32
REMARK   14  A    between atoms: _37  and  _39
REMARK   15  A    between atoms: _39  and  _40
REMARK   16  A    between atoms: _43  and  _45
REMARK   17  A    between atoms: _45  and  _46
REMARK   18  A    between atoms: _45  and  _48
REMARK   19  A    between atoms: _48  and  _49
REMARK   20  A    between atoms: _55  and  _57
REMARK   21  A    between atoms: _57  and  _58
REMARK   22  A    between atoms: _57  and  _60
REMARK   23  A    between atoms: _60  and  _61
REMARK   24  A    between atoms: _71  and  _73
REMARK   25  A    between atoms: _73  and  _74
REMARK   26  A    between atoms: _73  and  _76
REMARK   27  A    between atoms: _76  and  _77
REMARK   28  A    between atoms: _82  and  _84
REMARK   29  A    between atoms: _84  and  _85
REMARK   30  A    between atoms: _84  and  _87
REMARK   31  A    between atoms: _90  and  _92
REMARK   32  A    between atoms: _92  and  _93
REMARK   33  A    between atoms: _92  and  _95
REMARK   34  A    between atoms: _95  and  _96
REMARK   35  A    between atoms: _101  and  _102
REMARK   36  A    between atoms: _104  and  _106
REMARK   37  A    between atoms: _106  and  _107
REMARK   38  A    between atoms: _109  and  _111
REMARK   39  A    between atoms: _111  and  _112
REMARK   40  A    between atoms: _111  and  _114
REMARK   41  A    between atoms: _114  and  _115
REMARK   42  A    between atoms: _118  and  _120
REMARK   43  A    between atoms: _120  and  _121
REMARK   44  A    between atoms: _120  and  _123
REMARK   45  A    between atoms: _123  and  _124
REMARK   46  A    between atoms: _130  and  _132
REMARK   47  A    between atoms: _132  and  _133
REMARK   48  A    between atoms: _132  and  _135
REMARK   49  A    between atoms: _135  and  _136
REMARK   50  A    between atoms: _139  and  _141
REMARK   51  A    between atoms: _141  and  _142
REMARK   52  A    between atoms: _141  and  _144
REMARK   53  A    between atoms: _144  and  _145
REMARK   54  A    between atoms: _148  and  _150
REMARK   55  A    between atoms: _150  and  _151
REMARK   56  A    between atoms: _150  and  _153
REMARK   57  A    between atoms: _156  and  _158
REMARK   58  A    between atoms: _158  and  _159
REMARK   59  A    between atoms: _158  and  _161
REMARK   60  A    between atoms: _164  and  _166
REMARK   61  A    between atoms: _166  and  _167
REMARK   62  A    between atoms: _166  and  _169
REMARK   63  A    between atoms: _169  and  _170
REMARK   64  A    between atoms: _174  and  ZN_380
REMARK   65  A    between atoms: _175  and  _177
REMARK   66  A    between atoms: _177  and  _178
REMARK   67  A    between atoms: _177  and  _180
REMARK   68  A    between atoms: _180  and  _181
REMARK   69  A    between atoms: _181  and  _182
REMARK   70  A    between atoms: _185  and  _187
REMARK   71  A    between atoms: _187  and  _188
REMARK   72  A    between atoms: _187  and  _190
REMARK   73  A    between atoms: _190  and  _191
REMARK   74  A    between atoms: _194  and  _196
REMARK   75  A    between atoms: _196  and  _197
REMARK   76  A    between atoms: _196  and  _199
REMARK   77  A    between atoms: _199  and  _200
REMARK   78  A    between atoms: _204  and  ZN_380
REMARK   79  A    between atoms: _205  and  _207
REMARK   80  A    between atoms: _207  and  _208
REMARK   81  A    between atoms: _207  and  _210
REMARK   82  A    between atoms: _210  and  _211
REMARK   83  A    between atoms: _216  and  _217
REMARK   84  A    between atoms: _219  and  _221
REMARK   85  A    between atoms: _221  and  _222
REMARK   86  A    between atoms: _224  and  _226
REMARK   87  A    between atoms: _226  and  _227
REMARK   88  A    between atoms: _226  and  _229
REMARK   89  A    between atoms: _229  and  _230
REMARK   90  A    between atoms: _235  and  _237
REMARK   91  A    between atoms: _237  and  _238
REMARK   92  A    between atoms: _237  and  _240
REMARK   93  A    between atoms: _240  and  _241
REMARK   94  A    between atoms: _241  and  _242
REMARK   95  A    between atoms: _242  and  _243
REMARK   96  A    between atoms: _243  and  ZN_380
REMARK   97  A    between atoms: _245  and  _247
REMARK   98  A    between atoms: _247  and  _248
REMARK   99  A    between atoms: _247  and  _250
REMARK  100  A    between atoms: _250  and  _251
REMARK  101  A    between atoms: _253  and  _255
REMARK  102  A    between atoms: _255  and  _256
REMARK  103  A    between atoms: _255  and  _258
REMARK  104  A    between atoms: _258  and  _259
REMARK  105  A    between atoms: _262  and  _264
REMARK  106  A    between atoms: _264  and  _265
REMARK  107  A    between atoms: _264  and  _267
REMARK  108  A    between atoms: _267  and  _268
REMARK  109  A    between atoms: _271  and  _273
REMARK  110  A    between atoms: _273  and  _274
REMARK  111  A    between atoms: _276  and  _278
REMARK  112  A    between atoms: _278  and  _279
REMARK  113  A    between atoms: _278  and  _281
REMARK  114  A    between atoms: _284  and  _286
REMARK  115  A    between atoms: _286  and  _287
REMARK  116  A    between atoms: _286  and  _289
REMARK  117  A    between atoms: _289  and  _290
REMARK  118  A    between atoms: _295  and  _296
REMARK  119  A    between atoms: _298  and  _300
REMARK  120  A    between atoms: _300  and  _301
REMARK  121  A    between atoms: _300  and  _303
REMARK  122  A    between atoms: _303  and  _304
REMARK  123  A    between atoms: _307  and  _309
REMARK  124  A    between atoms: _309  and  _310
REMARK  125  A    between atoms: _309  and  _312
REMARK  126  A    between atoms: _312  and  _313
REMARK  127  A    between atoms: _313  and  _314
REMARK  128  A    between atoms: _314  and  _315
REMARK  129  A    between atoms: _324  and  _326
REMARK  130  A    between atoms: _326  and  _327
REMARK  131  A    between atoms: _326  and  _329
REMARK  132  A    between atoms: _329  and  _330
REMARK  133  A    between atoms: _333  and  _335
REMARK  134  A    between atoms: _335  and  _336
REMARK  135  A    between atoms: _335  and  _338
REMARK  136  A    between atoms: _338  and  _339
REMARK  137  A    between atoms: _344  and  _346
REMARK  138  A    between atoms: _346  and  _347
REMARK  139  A    between atoms: _346  and  _349
REMARK  140  A    between atoms: _352  and  _354
REMARK  141  A    between atoms: _354  and  _355
REMARK  142  A    between atoms: _354  and  _357
REMARK  143  A    between atoms: _357  and  _358
REMARK  144  A    between atoms: _363  and  _365
REMARK  145  A    between atoms: _365  and  _366
REMARK  146  A    between atoms: _365  and  _368
REMARK  147  A    between atoms: _368  and  _369
REMARK  148  A    between atoms: _372  and  _374
REMARK  149  A    between atoms: _374  and  _375
REMARK  150  A    between atoms: _374  and  _377
REMARK  151  A    between atoms: _377  and  _378
REMARK                            x       y       z     vdW  Elec       q    Type
REMARK                         _______ _______ _______ _____ _____    ______ ____
ROOT
ATOM      1  O   HOH     1      59.751  17.502  -6.455  0.00  0.00    +0.000 OA
ENDROOT
TORSDOF 0
REMARK  Name = ../refined-set-2016/1tlp/1tlp_pocket.pdb
REMARK  151 active torsions:
REMARK  status: ('A' for Active; 'I' for Inactive)
REMARK    1  A    between atoms: _1  and  _3
REMARK    2  A    between atoms: _3  and  _4
REMARK    3  A    between atoms: _3  and  _6
REMARK    4  A    between atoms: _6  and  _7
REMARK    5  A    between atoms: _12  and  _13
REMARK    6  A    between atoms: _15  and  _17
REMARK    7  A    between atoms: _17  and  _18
REMARK    8  A    between atoms: _17  and  _20
REMARK    9  A    between atoms: _20  and  _21
REMARK   10  A    between atoms: _26  and  _28
REMARK   11  A    between atoms: _28  and  _29
REMARK   12  A    between atoms: _28  and  _31
REMARK   13  A    between atoms: _31  and  _32
REMARK   14  A    between atoms: _37  and  _39
REMARK   15  A    between atoms: _39  and  _40
REMARK   16  A    between atoms: _43  and  _45
REMARK   17  A    between atoms: _45  and  _46
REMARK   18  A    between atoms: _45  and  _48
REMARK   19  A    between atoms: _48  and  _49
REMARK   20  A    between atoms: _55  and  _57
REMARK   21  A    between atoms: _57  and  _58
REMARK   22  A    between atoms: _57  and  _60
REMARK   23  A    between atoms: _60  and  _61
REMARK   24  A    between atoms: _71  and  _73
REMARK   25  A    between atoms: _73  and  _74
REMARK   26  A    between atoms: _73  and  _76
REMARK   27  A    between atoms: _76  and  _77
REMARK   28  A    between atoms: _82  and  _84
REMARK   29  A    between atoms: _84  and  _85
REMARK   30  A    between atoms: _84  and  _87
REMARK   31  A    between atoms: _90  and  _92
REMARK   32  A    between atoms: _92  and  _93
REMARK   33  A    between atoms: _92  and  _95
REMARK   34  A    between atoms: _95  and  _96
REMARK   35  A    between atoms: _101  and  _102
REMARK   36  A    between atoms: _104  and  _106
REMARK   37  A    between atoms: _106  and  _107
REMARK   38  A    between atoms: _109  and  _111
REMARK   39  A    between atoms: _111  and  _112
REMARK   40  A    between atoms: _111  and  _114
REMARK   41  A    between atoms: _114  and  _115
REMARK   42  A    between atoms: _118  and  _120
REMARK   43  A    between atoms: _120  and  _121
REMARK   44  A    between atoms: _120  and  _123
REMARK   45  A    between atoms: _123  and  _124
REMARK   46  A    between atoms: _130  and  _132
REMARK   47  A    between atoms: _132  and  _133
REMARK   48  A    between atoms: _132  and  _135
REMARK   49  A    between atoms: _135  and  _136
REMARK   50  A    between atoms: _139  and  _141
REMARK   51  A    between atoms: _141  and  _142
REMARK   52  A    between atoms: _141  and  _144
REMARK   53  A    between atoms: _144  and  _145
REMARK   54  A    between atoms: _148  and  _150
REMARK   55  A    between atoms: _150  and  _151
REMARK   56  A    between atoms: _150  and  _153
REMARK   57  A    between atoms: _156  and  _158
REMARK   58  A    between atoms: _158  and  _159
REMARK   59  A    between atoms: _158  and  _161
REMARK   60  A    between atoms: _164  and  _166
REMARK   61  A    between atoms: _166  and  _167
REMARK   62  A    between atoms: _166  and  _169
REMARK   63  A    between atoms: _169  and  _170
REMARK   64  A    between atoms: _174  and  ZN_380
REMARK   65  A    between atoms: _175  and  _177
REMARK   66  A    between atoms: _177  and  _178
REMARK   67  A    between atoms: _177  and  _180
REMARK   68  A    between atoms: _180  and  _181
REMARK   69  A    between atoms: _181  and  _182
REMARK   70  A    between atoms: _185  and  _187
REMARK   71  A    between atoms: _187  and  _188
REMARK   72  A    between atoms: _187  and  _190
REMARK   73  A    between atoms: _190  and  _191
REMARK   74  A    between atoms: _194  and  _196
REMARK   75  A    between atoms: _196  and  _197
REMARK   76  A    between atoms: _196  and  _199
REMARK   77  A    between atoms: _199  and  _200
REMARK   78  A    between atoms: _204  and  ZN_380
REMARK   79  A    between atoms: _205  and  _207
REMARK   80  A    between atoms: _207  and  _208
REMARK   81  A    between atoms: _207  and  _210
REMARK   82  A    between atoms: _210  and  _211
REMARK   83  A    between atoms: _216  and  _217
REMARK   84  A    between atoms: _219  and  _221
REMARK   85  A    between atoms: _221  and  _222
REMARK   86  A    between atoms: _224  and  _226
REMARK   87  A    between atoms: _226  and  _227
REMARK   88  A    between atoms: _226  and  _229
REMARK   89  A    between atoms: _229  and  _230
REMARK   90  A    between atoms: _235  and  _237
REMARK   91  A    between atoms: _237  and  _238
REMARK   92  A    between atoms: _237  and  _240
REMARK   93  A    between atoms: _240  and  _241
REMARK   94  A    between atoms: _241  and  _242
REMARK   95  A    between atoms: _242  and  _243
REMARK   96  A    between atoms: _243  and  ZN_380
REMARK   97  A    between atoms: _245  and  _247
REMARK   98  A    between atoms: _247  and  _248
REMARK   99  A    between atoms: _247  and  _250
REMARK  100  A    between atoms: _250  and  _251
REMARK  101  A    between atoms: _253  and  _255
REMARK  102  A    between atoms: _255  and  _256
REMARK  103  A    between atoms: _255  and  _258
REMARK  104  A    between atoms: _258  and  _259
REMARK  105  A    between atoms: _262  and  _264
REMARK  106  A    between atoms: _264  and  _265
REMARK  107  A    between atoms: _264  and  _267
REMARK  108  A    between atoms: _267  and  _268
REMARK  109  A    between atoms: _271  and  _273
REMARK  110  A    between atoms: _273  and  _274
REMARK  111  A    between atoms: _276  and  _278
REMARK  112  A    between atoms: _278  and  _279
REMARK  113  A    between atoms: _278  and  _281
REMARK  114  A    between atoms: _284  and  _286
REMARK  115  A    between atoms: _286  and  _287
REMARK  116  A    between atoms: _286  and  _289
REMARK  117  A    between atoms: _289  and  _290
REMARK  118  A    between atoms: _295  and  _296
REMARK  119  A    between atoms: _298  and  _300
REMARK  120  A    between atoms: _300  and  _301
REMARK  121  A    between atoms: _300  and  _303
REMARK  122  A    between atoms: _303  and  _304
REMARK  123  A    between atoms: _307  and  _309
REMARK  124  A    between atoms: _309  and  _310
REMARK  125  A    between atoms: _309  and  _312
REMARK  126  A    between atoms: _312  and  _313
REMARK  127  A    between atoms: _313  and  _314
REMARK  128  A    between atoms: _314  and  _315
REMARK  129  A    between atoms: _324  and  _326
REMARK  130  A    between atoms: _326  and  _327
REMARK  131  A    between atoms: _326  and  _329
REMARK  132  A    between atoms: _329  and  _330
REMARK  133  A    between atoms: _333  and  _335
REMARK  134  A    between atoms: _335  and  _336
REMARK  135  A    between atoms: _335  and  _338
REMARK  136  A    between atoms: _338  and  _339
REMARK  137  A    between atoms: _344  and  _346
REMARK  138  A    between atoms: _346  and  _347
REMARK  139  A    between atoms: _346  and  _349
REMARK  140  A    between atoms: _352  and  _354
REMARK  141  A    between atoms: _354  and  _355
REMARK  142  A    between atoms: _354  and  _357
REMARK  143  A    between atoms: _357  and  _358
REMARK  144  A    between atoms: _363  and  _365
REMARK  145  A    between atoms: _365  and  _366
REMARK  146  A    between atoms: _365  and  _368
REMARK  147  A    between atoms: _368  and  _369
REMARK  148  A    between atoms: _372  and  _374
REMARK  149  A    between atoms: _374  and  _375
REMARK  150  A    between atoms: _374  and  _377
REMARK  151  A    between atoms: _377  and  _378
REMARK                            x       y       z     vdW  Elec       q    Type
REMARK                         _______ _______ _______ _____ _____    ______ ____
ROOT
ATOM      1  O   HOH     1      57.936  13.049  -3.330  0.00  0.00    +0.000 OA
ENDROOT
TORSDOF 0
REMARK  Name = ../refined-set-2016/1tlp/1tlp_pocket.pdb
REMARK  151 active torsions:
REMARK  status: ('A' for Active; 'I' for Inactive)
REMARK    1  A    between atoms: _1  and  _3
REMARK    2  A    between atoms: _3  and  _4
REMARK    3  A    between atoms: _3  and  _6
REMARK    4  A    between atoms: _6  and  _7
REMARK    5  A    between atoms: _12  and  _13
REMARK    6  A    between atoms: _15  and  _17
REMARK    7  A    between atoms: _17  and  _18
REMARK    8  A    between atoms: _17  and  _20
REMARK    9  A    between atoms: _20  and  _21
REMARK   10  A    between atoms: _26  and  _28
REMARK   11  A    between atoms: _28  and  _29
REMARK   12  A    between atoms: _28  and  _31
REMARK   13  A    between atoms: _31  and  _32
REMARK   14  A    between atoms: _37  and  _39
REMARK   15  A    between atoms: _39  and  _40
REMARK   16  A    between atoms: _43  and  _45
REMARK   17  A    between atoms: _45  and  _46
REMARK   18  A    between atoms: _45  and  _48
REMARK   19  A    between atoms: _48  and  _49
REMARK   20  A    between atoms: _55  and  _57
REMARK   21  A    between atoms: _57  and  _58
REMARK   22  A    between atoms: _57  and  _60
REMARK   23  A    between atoms: _60  and  _61
REMARK   24  A    between atoms: _71  and  _73
REMARK   25  A    between atoms: _73  and  _74
REMARK   26  A    between atoms: _73  and  _76
REMARK   27  A    between atoms: _76  and  _77
REMARK   28  A    between atoms: _82  and  _84
REMARK   29  A    between atoms: _84  and  _85
REMARK   30  A    between atoms: _84  and  _87
REMARK   31  A    between atoms: _90  and  _92
REMARK   32  A    between atoms: _92  and  _93
REMARK   33  A    between atoms: _92  and  _95
REMARK   34  A    between atoms: _95  and  _96
REMARK   35  A    between atoms: _101  and  _102
REMARK   36  A    between atoms: _104  and  _106
REMARK   37  A    between atoms: _106  and  _107
REMARK   38  A    between atoms: _109  and  _111
REMARK   39  A    between atoms: _111  and  _112
REMARK   40  A    between atoms: _111  and  _114
REMARK   41  A    between atoms: _114  and  _115
REMARK   42  A    between atoms: _118  and  _120
REMARK   43  A    between atoms: _120  and  _121
REMARK   44  A    between atoms: _120  and  _123
REMARK   45  A    between atoms: _123  and  _124
REMARK   46  A    between atoms: _130  and  _132
REMARK   47  A    between atoms: _132  and  _133
REMARK   48  A    between atoms: _132  and  _135
REMARK   49  A    between atoms: _135  and  _136
REMARK   50  A    between atoms: _139  and  _141
REMARK   51  A    between atoms: _141  and  _142
REMARK   52  A    between atoms: _141  and  _144
REMARK   53  A    between atoms: _144  and  _145
REMARK   54  A    between atoms: _148  and  _150
REMARK   55  A    between atoms: _150  and  _151
REMARK   56  A    between atoms: _150  and  _153
REMARK   57  A    between atoms: _156  and  _158
REMARK   58  A    between atoms: _158  and  _159
REMARK   59  A    between atoms: _158  and  _161
REMARK   60  A    between atoms: _164  and  _166
REMARK   61  A    between atoms: _166  and  _167
REMARK   62  A    between atoms: _166  and  _169
REMARK   63  A    between atoms: _169  and  _170
REMARK   64  A    between atoms: _174  and  ZN_380
REMARK   65  A    between atoms: _175  and  _177
REMARK   66  A    between atoms: _177  and  _178
REMARK   67  A    between atoms: _177  and  _180
REMARK   68  A    between atoms: _180  and  _181
REMARK   69  A    between atoms: _181  and  _182
REMARK   70  A    between atoms: _185  and  _187
REMARK   71  A    between atoms: _187  and  _188
REMARK   72  A    between atoms: _187  and  _190
REMARK   73  A    between atoms: _190  and  _191
REMARK   74  A    between atoms: _194  and  _196
REMARK   75  A    between atoms: _196  and  _197
REMARK   76  A    between atoms: _196  and  _199
REMARK   77  A    between atoms: _199  and  _200
REMARK   78  A    between atoms: _204  and  ZN_380
REMARK   79  A    between atoms: _205  and  _207
REMARK   80  A    between atoms: _207  and  _208
REMARK   81  A    between atoms: _207  and  _210
REMARK   82  A    between atoms: _210  and  _211
REMARK   83  A    between atoms: _216  and  _217
REMARK   84  A    between atoms: _219  and  _221
REMARK   85  A    between atoms: _221  and  _222
REMARK   86  A    between atoms: _224  and  _226
REMARK   87  A    between atoms: _226  and  _227
REMARK   88  A    between atoms: _226  and  _229
REMARK   89  A    between atoms: _229  and  _230
REMARK   90  A    between atoms: _235  and  _237
REMARK   91  A    between atoms: _237  and  _238
REMARK   92  A    between atoms: _237  and  _240
REMARK   93  A    between atoms: _240  and  _241
REMARK   94  A    between atoms: _241  and  _242
REMARK   95  A    between atoms: _242  and  _243
REMARK   96  A    between atoms: _243  and  ZN_380
REMARK   97  A    between atoms: _245  and  _247
REMARK   98  A    between atoms: _247  and  _248
REMARK   99  A    between atoms: _247  and  _250
REMARK  100  A    between atoms: _250  and  _251
REMARK  101  A    between atoms: _253  and  _255
REMARK  102  A    between atoms: _255  and  _256
REMARK  103  A    between atoms: _255  and  _258
REMARK  104  A    between atoms: _258  and  _259
REMARK  105  A    between atoms: _262  and  _264
REMARK  106  A    between atoms: _264  and  _265
REMARK  107  A    between atoms: _264  and  _267
REMARK  108  A    between atoms: _267  and  _268
REMARK  109  A    between atoms: _271  and  _273
REMARK  110  A    between atoms: _273  and  _274
REMARK  111  A    between atoms: _276  and  _278
REMARK  112  A    between atoms: _278  and  _279
REMARK  113  A    between atoms: _278  and  _281
REMARK  114  A    between atoms: _284  and  _286
REMARK  115  A    between atoms: _286  and  _287
REMARK  116  A    between atoms: _286  and  _289
REMARK  117  A    between atoms: _289  and  _290
REMARK  118  A    between atoms: _295  and  _296
REMARK  119  A    between atoms: _298  and  _300
REMARK  120  A    between atoms: _300  and  _301
REMARK  121  A    between atoms: _300  and  _303
REMARK  122  A    between atoms: _303  and  _304
REMARK  123  A    between atoms: _307  and  _309
REMARK  124  A    between atoms: _309  and  _310
REMARK  125  A    between atoms: _309  and  _312
REMARK  126  A    between atoms: _312  and  _313
REMARK  127  A    between atoms: _313  and  _314
REMARK  128  A    between atoms: _314  and  _315
REMARK  129  A    between atoms: _324  and  _326
REMARK  130  A    between atoms: _326  and  _327
REMARK  131  A    between atoms: _326  and  _329
REMARK  132  A    between atoms: _329  and  _330
REMARK  133  A    between atoms: _333  and  _335
REMARK  134  A    between atoms: _335  and  _336
REMARK  135  A    between atoms: _335  and  _338
REMARK  136  A    between atoms: _338  and  _339
REMARK  137  A    between atoms: _344  and  _346
REMARK  138  A    between atoms: _346  and  _347
REMARK  139  A    between atoms: _346  and  _349
REMARK  140  A    between atoms: _352  and  _354
REMARK  141  A    between atoms: _354  and  _355
REMARK  142  A    between atoms: _354  and  _357
REMARK  143  A    between atoms: _357  and  _358
REMARK  144  A    between atoms: _363  and  _365
REMARK  145  A    between atoms: _365  and  _366
REMARK  146  A    between atoms: _365  and  _368
REMARK  147  A    between atoms: _368  and  _369
REMARK  148  A    between atoms: _372  and  _374
REMARK  149  A    between atoms: _374  and  _375
REMARK  150  A    between atoms: _374  and  _377
REMARK  151  A    between atoms: _377  and  _378
REMARK                            x       y       z     vdW  Elec       q    Type
REMARK                         _______ _______ _______ _____ _____    ______ ____
ROOT
ATOM      1  O   HOH     1      51.019  19.603 -18.661  0.00  0.00    +0.000 OA
ENDROOT
TORSDOF 0
REMARK  Name = ../refined-set-2016/1tlp/1tlp_pocket.pdb
REMARK  151 active torsions:
REMARK  status: ('A' for Active; 'I' for Inactive)
REMARK    1  A    between atoms: _1  and  _3
REMARK    2  A    between atoms: _3  and  _4
REMARK    3  A    between atoms: _3  and  _6
REMARK    4  A    between atoms: _6  and  _7
REMARK    5  A    between atoms: _12  and  _13
REMARK    6  A    between atoms: _15  and  _17
REMARK    7  A    between atoms: _17  and  _18
REMARK    8  A    between atoms: _17  and  _20
REMARK    9  A    between atoms: _20  and  _21
REMARK   10  A    between atoms: _26  and  _28
REMARK   11  A    between atoms: _28  and  _29
REMARK   12  A    between atoms: _28  and  _31
REMARK   13  A    between atoms: _31  and  _32
REMARK   14  A    between atoms: _37  and  _39
REMARK   15  A    between atoms: _39  and  _40
REMARK   16  A    between atoms: _43  and  _45
REMARK   17  A    between atoms: _45  and  _46
REMARK   18  A    between atoms: _45  and  _48
REMARK   19  A    between atoms: _48  and  _49
REMARK   20  A    between atoms: _55  and  _57
REMARK   21  A    between atoms: _57  and  _58
REMARK   22  A    between atoms: _57  and  _60
REMARK   23  A    between atoms: _60  and  _61
REMARK   24  A    between atoms: _71  and  _73
REMARK   25  A    between atoms: _73  and  _74
REMARK   26  A    between atoms: _73  and  _76
REMARK   27  A    between atoms: _76  and  _77
REMARK   28  A    between atoms: _82  and  _84
REMARK   29  A    between atoms: _84  and  _85
REMARK   30  A    between atoms: _84  and  _87
REMARK   31  A    between atoms: _90  and  _92
REMARK   32  A    between atoms: _92  and  _93
REMARK   33  A    between atoms: _92  and  _95
REMARK   34  A    between atoms: _95  and  _96
REMARK   35  A    between atoms: _101  and  _102
REMARK   36  A    between atoms: _104  and  _106
REMARK   37  A    between atoms: _106  and  _107
REMARK   38  A    between atoms: _109  and  _111
REMARK   39  A    between atoms: _111  and  _112
REMARK   40  A    between atoms: _111  and  _114
REMARK   41  A    between atoms: _114  and  _115
REMARK   42  A    between atoms: _118  and  _120
REMARK   43  A    between atoms: _120  and  _121
REMARK   44  A    between atoms: _120  and  _123
REMARK   45  A    between atoms: _123  and  _124
REMARK   46  A    between atoms: _130  and  _132
REMARK   47  A    between atoms: _132  and  _133
REMARK   48  A    between atoms: _132  and  _135
REMARK   49  A    between atoms: _135  and  _136
REMARK   50  A    between atoms: _139  and  _141
REMARK   51  A    between atoms: _141  and  _142
REMARK   52  A    between atoms: _141  and  _144
REMARK   53  A    between atoms: _144  and  _145
REMARK   54  A    between atoms: _148  and  _150
REMARK   55  A    between atoms: _150  and  _151
REMARK   56  A    between atoms: _150  and  _153
REMARK   57  A    between atoms: _156  and  _158
REMARK   58  A    between atoms: _158  and  _159
REMARK   59  A    between atoms: _158  and  _161
REMARK   60  A    between atoms: _164  and  _166
REMARK   61  A    between atoms: _166  and  _167
REMARK   62  A    between atoms: _166  and  _169
REMARK   63  A    between atoms: _169  and  _170
REMARK   64  A    between atoms: _174  and  ZN_380
REMARK   65  A    between atoms: _175  and  _177
REMARK   66  A    between atoms: _177  and  _178
REMARK   67  A    between atoms: _177  and  _180
REMARK   68  A    between atoms: _180  and  _181
REMARK   69  A    between atoms: _181  and  _182
REMARK   70  A    between atoms: _185  and  _187
REMARK   71  A    between atoms: _187  and  _188
REMARK   72  A    between atoms: _187  and  _190
REMARK   73  A    between atoms: _190  and  _191
REMARK   74  A    between atoms: _194  and  _196
REMARK   75  A    between atoms: _196  and  _197
REMARK   76  A    between atoms: _196  and  _199
REMARK   77  A    between atoms: _199  and  _200
REMARK   78  A    between atoms: _204  and  ZN_380
REMARK   79  A    between atoms: _205  and  _207
REMARK   80  A    between atoms: _207  and  _208
REMARK   81  A    between atoms: _207  and  _210
REMARK   82  A    between atoms: _210  and  _211
REMARK   83  A    between atoms: _216  and  _217
REMARK   84  A    between atoms: _219  and  _221
REMARK   85  A    between atoms: _221  and  _222
REMARK   86  A    between atoms: _224  and  _226
REMARK   87  A    between atoms: _226  and  _227
REMARK   88  A    between atoms: _226  and  _229
REMARK   89  A    between atoms: _229  and  _230
REMARK   90  A    between atoms: _235  and  _237
REMARK   91  A    between atoms: _237  and  _238
REMARK   92  A    between atoms: _237  and  _240
REMARK   93  A    between atoms: _240  and  _241
REMARK   94  A    between atoms: _241  and  _242
REMARK   95  A    between atoms: _242  and  _243
REMARK   96  A    between atoms: _243  and  ZN_380
REMARK   97  A    between atoms: _245  and  _247
REMARK   98  A    between atoms: _247  and  _248
REMARK   99  A    between atoms: _247  and  _250
REMARK  100  A    between atoms: _250  and  _251
REMARK  101  A    between atoms: _253  and  _255
REMARK  102  A    between atoms: _255  and  _256
REMARK  103  A    between atoms: _255  and  _258
REMARK  104  A    between atoms: _258  and  _259
REMARK  105  A    between atoms: _262  and  _264
REMARK  106  A    between atoms: _264  and  _265
REMARK  107  A    between atoms: _264  and  _267
REMARK  108  A    between atoms: _267  and  _268
REMARK  109  A    between atoms: _271  and  _273
REMARK  110  A    between atoms: _273  and  _274
REMARK  111  A    between atoms: _276  and  _278
REMARK  112  A    between atoms: _278  and  _279
REMARK  113  A    between atoms: _278  and  _281
REMARK  114  A    between atoms: _284  and  _286
REMARK  115  A    between atoms: _286  and  _287
REMARK  116  A    between atoms: _286  and  _289
REMARK  117  A    between atoms: _289  and  _290
REMARK  118  A    between atoms: _295  and  _296
REMARK  119  A    between atoms: _298  and  _300
REMARK  120  A    between atoms: _300  and  _301
REMARK  121  A    between atoms: _300  and  _303
REMARK  122  A    between atoms: _303  and  _304
REMARK  123  A    between atoms: _307  and  _309
REMARK  124  A    between atoms: _309  and  _310
REMARK  125  A    between atoms: _309  and  _312
REMARK  126  A    between atoms: _312  and  _313
REMARK  127  A    between atoms: _313  and  _314
REMARK  128  A    between atoms: _314  and  _315
REMARK  129  A    between atoms: _324  and  _326
REMARK  130  A    between atoms: _326  and  _327
REMARK  131  A    between atoms: _326  and  _329
REMARK  132  A    between atoms: _329  and  _330
REMARK  133  A    between atoms: _333  and  _335
REMARK  134  A    between atoms: _335  and  _336
REMARK  135  A    between atoms: _335  and  _338
REMARK  136  A    between atoms: _338  and  _339
REMARK  137  A    between atoms: _344  and  _346
REMARK  138  A    between atoms: _346  and  _347
REMARK  139  A    between atoms: _346  and  _349
REMARK  140  A    between atoms: _352  and  _354
REMARK  141  A    between atoms: _354  and  _355
REMARK  142  A    between atoms: _354  and  _357
REMARK  143  A    between atoms: _357  and  _358
REMARK  144  A    between atoms: _363  and  _365
REMARK  145  A    between atoms: _365  and  _366
REMARK  146  A    between atoms: _365  and  _368
REMARK  147  A    between atoms: _368  and  _369
REMARK  148  A    between atoms: _372  and  _374
REMARK  149  A    between atoms: _374  and  _375
REMARK  150  A    between atoms: _374  and  _377
REMARK  151  A    between atoms: _377  and  _378
REMARK                            x       y       z     vdW  Elec       q    Type
REMARK                         _______ _______ _______ _____ _____    ______ ____
ROOT
ATOM      1  O   HOH     1      46.497  23.530 -14.736  0.00  0.00    +0.000 OA
ENDROOT
TORSDOF 0
REMARK  Name = ../refined-set-2016/1tlp/1tlp_pocket.pdb
REMARK  151 active torsions:
REMARK  status: ('A' for Active; 'I' for Inactive)
REMARK    1  A    between atoms: _1  and  _3
REMARK    2  A    between atoms: _3  and  _4
REMARK    3  A    between atoms: _3  and  _6
REMARK    4  A    between atoms: _6  and  _7
REMARK    5  A    between atoms: _12  and  _13
REMARK    6  A    between atoms: _15  and  _17
REMARK    7  A    between atoms: _17  and  _18
REMARK    8  A    between atoms: _17  and  _20
REMARK    9  A    between atoms: _20  and  _21
REMARK   10  A    between atoms: _26  and  _28
REMARK   11  A    between atoms: _28  and  _29
REMARK   12  A    between atoms: _28  and  _31
REMARK   13  A    between atoms: _31  and  _32
REMARK   14  A    between atoms: _37  and  _39
REMARK   15  A    between atoms: _39  and  _40
REMARK   16  A    between atoms: _43  and  _45
REMARK   17  A    between atoms: _45  and  _46
REMARK   18  A    between atoms: _45  and  _48
REMARK   19  A    between atoms: _48  and  _49
REMARK   20  A    between atoms: _55  and  _57
REMARK   21  A    between atoms: _57  and  _58
REMARK   22  A    between atoms: _57  and  _60
REMARK   23  A    between atoms: _60  and  _61
REMARK   24  A    between atoms: _71  and  _73
REMARK   25  A    between atoms: _73  and  _74
REMARK   26  A    between atoms: _73  and  _76
REMARK   27  A    between atoms: _76  and  _77
REMARK   28  A    between atoms: _82  and  _84
REMARK   29  A    between atoms: _84  and  _85
REMARK   30  A    between atoms: _84  and  _87
REMARK   31  A    between atoms: _90  and  _92
REMARK   32  A    between atoms: _92  and  _93
REMARK   33  A    between atoms: _92  and  _95
REMARK   34  A    between atoms: _95  and  _96
REMARK   35  A    between atoms: _101  and  _102
REMARK   36  A    between atoms: _104  and  _106
REMARK   37  A    between atoms: _106  and  _107
REMARK   38  A    between atoms: _109  and  _111
REMARK   39  A    between atoms: _111  and  _112
REMARK   40  A    between atoms: _111  and  _114
REMARK   41  A    between atoms: _114  and  _115
REMARK   42  A    between atoms: _118  and  _120
REMARK   43  A    between atoms: _120  and  _121
REMARK   44  A    between atoms: _120  and  _123
REMARK   45  A    between atoms: _123  and  _124
REMARK   46  A    between atoms: _130  and  _132
REMARK   47  A    between atoms: _132  and  _133
REMARK   48  A    between atoms: _132  and  _135
REMARK   49  A    between atoms: _135  and  _136
REMARK   50  A    between atoms: _139  and  _141
REMARK   51  A    between atoms: _141  and  _142
REMARK   52  A    between atoms: _141  and  _144
REMARK   53  A    between atoms: _144  and  _145
REMARK   54  A    between atoms: _148  and  _150
REMARK   55  A    between atoms: _150  and  _151
REMARK   56  A    between atoms: _150  and  _153
REMARK   57  A    between atoms: _156  and  _158
REMARK   58  A    between atoms: _158  and  _159
REMARK   59  A    between atoms: _158  and  _161
REMARK   60  A    between atoms: _164  and  _166
REMARK   61  A    between atoms: _166  and  _167
REMARK   62  A    between atoms: _166  and  _169
REMARK   63  A    between atoms: _169  and  _170
REMARK   64  A    between atoms: _174  and  ZN_380
REMARK   65  A    between atoms: _175  and  _177
REMARK   66  A    between atoms: _177  and  _178
REMARK   67  A    between atoms: _177  and  _180
REMARK   68  A    between atoms: _180  and  _181
REMARK   69  A    between atoms: _181  and  _182
REMARK   70  A    between atoms: _185  and  _187
REMARK   71  A    between atoms: _187  and  _188
REMARK   72  A    between atoms: _187  and  _190
REMARK   73  A    between atoms: _190  and  _191
REMARK   74  A    between atoms: _194  and  _196
REMARK   75  A    between atoms: _196  and  _197
REMARK   76  A    between atoms: _196  and  _199
REMARK   77  A    between atoms: _199  and  _200
REMARK   78  A    between atoms: _204  and  ZN_380
REMARK   79  A    between atoms: _205  and  _207
REMARK   80  A    between atoms: _207  and  _208
REMARK   81  A    between atoms: _207  and  _210
REMARK   82  A    between atoms: _210  and  _211
REMARK   83  A    between atoms: _216  and  _217
REMARK   84  A    between atoms: _219  and  _221
REMARK   85  A    between atoms: _221  and  _222
REMARK   86  A    between atoms: _224  and  _226
REMARK   87  A    between atoms: _226  and  _227
REMARK   88  A    between atoms: _226  and  _229
REMARK   89  A    between atoms: _229  and  _230
REMARK   90  A    between atoms: _235  and  _237
REMARK   91  A    between atoms: _237  and  _238
REMARK   92  A    between atoms: _237  and  _240
REMARK   93  A    between atoms: _240  and  _241
REMARK   94  A    between atoms: _241  and  _242
REMARK   95  A    between atoms: _242  and  _243
REMARK   96  A    between atoms: _243  and  ZN_380
REMARK   97  A    between atoms: _245  and  _247
REMARK   98  A    between atoms: _247  and  _248
REMARK   99  A    between atoms: _247  and  _250
REMARK  100  A    between atoms: _250  and  _251
REMARK  101  A    between atoms: _253  and  _255
REMARK  102  A    between atoms: _255  and  _256
REMARK  103  A    between atoms: _255  and  _258
REMARK  104  A    between atoms: _258  and  _259
REMARK  105  A    between atoms: _262  and  _264
REMARK  106  A    between atoms: _264  and  _265
REMARK  107  A    between atoms: _264  and  _267
REMARK  108  A    between atoms: _267  and  _268
REMARK  109  A    between atoms: _271  and  _273
REMARK  110  A    between atoms: _273  and  _274
REMARK  111  A    between atoms: _276  and  _278
REMARK  112  A    between atoms: _278  and  _279
REMARK  113  A    between atoms: _278  and  _281
REMARK  114  A    between atoms: _284  and  _286
REMARK  115  A    between atoms: _286  and  _287
REMARK  116  A    between atoms: _286  and  _289
REMARK  117  A    between atoms: _289  and  _290
REMARK  118  A    between atoms: _295  and  _296
REMARK  119  A    between atoms: _298  and  _300
REMARK  120  A    between atoms: _300  and  _301
REMARK  121  A    between atoms: _300  and  _303
REMARK  122  A    between atoms: _303  and  _304
REMARK  123  A    between atoms: _307  and  _309
REMARK  124  A    between atoms: _309  and  _310
REMARK  125  A    between atoms: _309  and  _312
REMARK  126  A    between atoms: _312  and  _313
REMARK  127  A    between atoms: _313  and  _314
REMARK  128  A    between atoms: _314  and  _315
REMARK  129  A    between atoms: _324  and  _326
REMARK  130  A    between atoms: _326  and  _327
REMARK  131  A    between atoms: _326  and  _329
REMARK  132  A    between atoms: _329  and  _330
REMARK  133  A    between atoms: _333  and  _335
REMARK  134  A    between atoms: _335  and  _336
REMARK  135  A    between atoms: _335  and  _338
REMARK  136  A    between atoms: _338  and  _339
REMARK  137  A    between atoms: _344  and  _346
REMARK  138  A    between atoms: _346  and  _347
REMARK  139  A    between atoms: _346  and  _349
REMARK  140  A    between atoms: _352  and  _354
REMARK  141  A    between atoms: _354  and  _355
REMARK  142  A    between atoms: _354  and  _357
REMARK  143  A    between atoms: _357  and  _358
REMARK  144  A    between atoms: _363  and  _365
REMARK  145  A    between atoms: _365  and  _366
REMARK  146  A    between atoms: _365  and  _368
REMARK  147  A    between atoms: _368  and  _369
REMARK  148  A    between atoms: _372  and  _374
REMARK  149  A    between atoms: _374  and  _375
REMARK  150  A    between atoms: _374  and  _377
REMARK  151  A    between atoms: _377  and  _378
REMARK                            x       y       z     vdW  Elec       q    Type
REMARK                         _______ _______ _______ _____ _____    ______ ____
ROOT
ATOM      1  O   HOH     1      55.791   6.991  -7.657  0.00  0.00    +0.000 OA
ENDROOT
TORSDOF 0
REMARK  Name = ../refined-set-2016/1tlp/1tlp_pocket.pdb
REMARK  151 active torsions:
REMARK  status: ('A' for Active; 'I' for Inactive)
REMARK    1  A    between atoms: _1  and  _3
REMARK    2  A    between atoms: _3  and  _4
REMARK    3  A    between atoms: _3  and  _6
REMARK    4  A    between atoms: _6  and  _7
REMARK    5  A    between atoms: _12  and  _13
REMARK    6  A    between atoms: _15  and  _17
REMARK    7  A    between atoms: _17  and  _18
REMARK    8  A    between atoms: _17  and  _20
REMARK    9  A    between atoms: _20  and  _21
REMARK   10  A    between atoms: _26  and  _28
REMARK   11  A    between atoms: _28  and  _29
REMARK   12  A    between atoms: _28  and  _31
REMARK   13  A    between atoms: _31  and  _32
REMARK   14  A    between atoms: _37  and  _39
REMARK   15  A    between atoms: _39  and  _40
REMARK   16  A    between atoms: _43  and  _45
REMARK   17  A    between atoms: _45  and  _46
REMARK   18  A    between atoms: _45  and  _48
REMARK   19  A    between atoms: _48  and  _49
REMARK   20  A    between atoms: _55  and  _57
REMARK   21  A    between atoms: _57  and  _58
REMARK   22  A    between atoms: _57  and  _60
REMARK   23  A    between atoms: _60  and  _61
REMARK   24  A    between atoms: _71  and  _73
REMARK   25  A    between atoms: _73  and  _74
REMARK   26  A    between atoms: _73  and  _76
REMARK   27  A    between atoms: _76  and  _77
REMARK   28  A    between atoms: _82  and  _84
REMARK   29  A    between atoms: _84  and  _85
REMARK   30  A    between atoms: _84  and  _87
REMARK   31  A    between atoms: _90  and  _92
REMARK   32  A    between atoms: _92  and  _93
REMARK   33  A    between atoms: _92  and  _95
REMARK   34  A    between atoms: _95  and  _96
REMARK   35  A    between atoms: _101  and  _102
REMARK   36  A    between atoms: _104  and  _106
REMARK   37  A    between atoms: _106  and  _107
REMARK   38  A    between atoms: _109  and  _111
REMARK   39  A    between atoms: _111  and  _112
REMARK   40  A    between atoms: _111  and  _114
REMARK   41  A    between atoms: _114  and  _115
REMARK   42  A    between atoms: _118  and  _120
REMARK   43  A    between atoms: _120  and  _121
REMARK   44  A    between atoms: _120  and  _123
REMARK   45  A    between atoms: _123  and  _124
REMARK   46  A    between atoms: _130  and  _132
REMARK   47  A    between atoms: _132  and  _133
REMARK   48  A    between atoms: _132  and  _135
REMARK   49  A    between atoms: _135  and  _136
REMARK   50  A    between atoms: _139  and  _141
REMARK   51  A    between atoms: _141  and  _142
REMARK   52  A    between atoms: _141  and  _144
REMARK   53  A    between atoms: _144  and  _145
REMARK   54  A    between atoms: _148  and  _150
REMARK   55  A    between atoms: _150  and  _151
REMARK   56  A    between atoms: _150  and  _153
REMARK   57  A    between atoms: _156  and  _158
REMARK   58  A    between atoms: _158  and  _159
REMARK   59  A    between atoms: _158  and  _161
REMARK   60  A    between atoms: _164  and  _166
REMARK   61  A    between atoms: _166  and  _167
REMARK   62  A    between atoms: _166  and  _169
REMARK   63  A    between atoms: _169  and  _170
REMARK   64  A    between atoms: _174  and  ZN_380
REMARK   65  A    between atoms: _175  and  _177
REMARK   66  A    between atoms: _177  and  _178
REMARK   67  A    between atoms: _177  and  _180
REMARK   68  A    between atoms: _180  and  _181
REMARK   69  A    between atoms: _181  and  _182
REMARK   70  A    between atoms: _185  and  _187
REMARK   71  A    between atoms: _187  and  _188
REMARK   72  A    between atoms: _187  and  _190
REMARK   73  A    between atoms: _190  and  _191
REMARK   74  A    between atoms: _194  and  _196
REMARK   75  A    between atoms: _196  and  _197
REMARK   76  A    between atoms: _196  and  _199
REMARK   77  A    between atoms: _199  and  _200
REMARK   78  A    between atoms: _204  and  ZN_380
REMARK   79  A    between atoms: _205  and  _207
REMARK   80  A    between atoms: _207  and  _208
REMARK   81  A    between atoms: _207  and  _210
REMARK   82  A    between atoms: _210  and  _211
REMARK   83  A    between atoms: _216  and  _217
REMARK   84  A    between atoms: _219  and  _221
REMARK   85  A    between atoms: _221  and  _222
REMARK   86  A    between atoms: _224  and  _226
REMARK   87  A    between atoms: _226  and  _227
REMARK   88  A    between atoms: _226  and  _229
REMARK   89  A    between atoms: _229  and  _230
REMARK   90  A    between atoms: _235  and  _237
REMARK   91  A    between atoms: _237  and  _238
REMARK   92  A    between atoms: _237  and  _240
REMARK   93  A    between atoms: _240  and  _241
REMARK   94  A    between atoms: _241  and  _242
REMARK   95  A    between atoms: _242  and  _243
REMARK   96  A    between atoms: _243  and  ZN_380
REMARK   97  A    between atoms: _245  and  _247
REMARK   98  A    between atoms: _247  and  _248
REMARK   99  A    between atoms: _247  and  _250
REMARK  100  A    between atoms: _250  and  _251
REMARK  101  A    between atoms: _253  and  _255
REMARK  102  A    between atoms: _255  and  _256
REMARK  103  A    between atoms: _255  and  _258
REMARK  104  A    between atoms: _258  and  _259
REMARK  105  A    between atoms: _262  and  _264
REMARK  106  A    between atoms: _264  and  _265
REMARK  107  A    between atoms: _264  and  _267
REMARK  108  A    between atoms: _267  and  _268
REMARK  109  A    between atoms: _271  and  _273
REMARK  110  A    between atoms: _273  and  _274
REMARK  111  A    between atoms: _276  and  _278
REMARK  112  A    between atoms: _278  and  _279
REMARK  113  A    between atoms: _278  and  _281
REMARK  114  A    between atoms: _284  and  _286
REMARK  115  A    between atoms: _286  and  _287
REMARK  116  A    between atoms: _286  and  _289
REMARK  117  A    between atoms: _289  and  _290
REMARK  118  A    between atoms: _295  and  _296
REMARK  119  A    between atoms: _298  and  _300
REMARK  120  A    between atoms: _300  and  _301
REMARK  121  A    between atoms: _300  and  _303
REMARK  122  A    between atoms: _303  and  _304
REMARK  123  A    between atoms: _307  and  _309
REMARK  124  A    between atoms: _309  and  _310
REMARK  125  A    between atoms: _309  and  _312
REMARK  126  A    between atoms: _312  and  _313
REMARK  127  A    between atoms: _313  and  _314
REMARK  128  A    between atoms: _314  and  _315
REMARK  129  A    between atoms: _324  and  _326
REMARK  130  A    between atoms: _326  and  _327
REMARK  131  A    between atoms: _326  and  _329
REMARK  132  A    between atoms: _329  and  _330
REMARK  133  A    between atoms: _333  and  _335
REMARK  134  A    between atoms: _335  and  _336
REMARK  135  A    between atoms: _335  and  _338
REMARK  136  A    between atoms: _338  and  _339
REMARK  137  A    between atoms: _344  and  _346
REMARK  138  A    between atoms: _346  and  _347
REMARK  139  A    between atoms: _346  and  _349
REMARK  140  A    between atoms: _352  and  _354
REMARK  141  A    between atoms: _354  and  _355
REMARK  142  A    between atoms: _354  and  _357
REMARK  143  A    between atoms: _357  and  _358
REMARK  144  A    between atoms: _363  and  _365
REMARK  145  A    between atoms: _365  and  _366
REMARK  146  A    between atoms: _365  and  _368
REMARK  147  A    between atoms: _368  and  _369
REMARK  148  A    between atoms: _372  and  _374
REMARK  149  A    between atoms: _374  and  _375
REMARK  150  A    between atoms: _374  and  _377
REMARK  151  A    between atoms: _377  and  _378
REMARK                            x       y       z     vdW  Elec       q    Type
REMARK                         _______ _______ _______ _____ _____    ______ ____
ROOT
ATOM      1  O   HOH     1      60.054  10.905  -1.869  0.00  0.00    +0.000 OA
ENDROOT
TORSDOF 0
REMARK  Name = ../refined-set-2016/1tlp/1tlp_pocket.pdb
REMARK  151 active torsions:
REMARK  status: ('A' for Active; 'I' for Inactive)
REMARK    1  A    between atoms: _1  and  _3
REMARK    2  A    between atoms: _3  and  _4
REMARK    3  A    between atoms: _3  and  _6
REMARK    4  A    between atoms: _6  and  _7
REMARK    5  A    between atoms: _12  and  _13
REMARK    6  A    between atoms: _15  and  _17
REMARK    7  A    between atoms: _17  and  _18
REMARK    8  A    between atoms: _17  and  _20
REMARK    9  A    between atoms: _20  and  _21
REMARK   10  A    between atoms: _26  and  _28
REMARK   11  A    between atoms: _28  and  _29
REMARK   12  A    between atoms: _28  and  _31
REMARK   13  A    between atoms: _31  and  _32
REMARK   14  A    between atoms: _37  and  _39
REMARK   15  A    between atoms: _39  and  _40
REMARK   16  A    between atoms: _43  and  _45
REMARK   17  A    between atoms: _45  and  _46
REMARK   18  A    between atoms: _45  and  _48
REMARK   19  A    between atoms: _48  and  _49
REMARK   20  A    between atoms: _55  and  _57
REMARK   21  A    between atoms: _57  and  _58
REMARK   22  A    between atoms: _57  and  _60
REMARK   23  A    between atoms: _60  and  _61
REMARK   24  A    between atoms: _71  and  _73
REMARK   25  A    between atoms: _73  and  _74
REMARK   26  A    between atoms: _73  and  _76
REMARK   27  A    between atoms: _76  and  _77
REMARK   28  A    between atoms: _82  and  _84
REMARK   29  A    between atoms: _84  and  _85
REMARK   30  A    between atoms: _84  and  _87
REMARK   31  A    between atoms: _90  and  _92
REMARK   32  A    between atoms: _92  and  _93
REMARK   33  A    between atoms: _92  and  _95
REMARK   34  A    between atoms: _95  and  _96
REMARK   35  A    between atoms: _101  and  _102
REMARK   36  A    between atoms: _104  and  _106
REMARK   37  A    between atoms: _106  and  _107
REMARK   38  A    between atoms: _109  and  _111
REMARK   39  A    between atoms: _111  and  _112
REMARK   40  A    between atoms: _111  and  _114
REMARK   41  A    between atoms: _114  and  _115
REMARK   42  A    between atoms: _118  and  _120
REMARK   43  A    between atoms: _120  and  _121
REMARK   44  A    between atoms: _120  and  _123
REMARK   45  A    between atoms: _123  and  _124
REMARK   46  A    between atoms: _130  and  _132
REMARK   47  A    between atoms: _132  and  _133
REMARK   48  A    between atoms: _132  and  _135
REMARK   49  A    between atoms: _135  and  _136
REMARK   50  A    between atoms: _139  and  _141
REMARK   51  A    between atoms: _141  and  _142
REMARK   52  A    between atoms: _141  and  _144
REMARK   53  A    between atoms: _144  and  _145
REMARK   54  A    between atoms: _148  and  _150
REMARK   55  A    between atoms: _150  and  _151
REMARK   56  A    between atoms: _150  and  _153
REMARK   57  A    between atoms: _156  and  _158
REMARK   58  A    between atoms: _158  and  _159
REMARK   59  A    between atoms: _158  and  _161
REMARK   60  A    between atoms: _164  and  _166
REMARK   61  A    between atoms: _166  and  _167
REMARK   62  A    between atoms: _166  and  _169
REMARK   63  A    between atoms: _169  and  _170
REMARK   64  A    between atoms: _174  and  ZN_380
REMARK   65  A    between atoms: _175  and  _177
REMARK   66  A    between atoms: _177  and  _178
REMARK   67  A    between atoms: _177  and  _180
REMARK   68  A    between atoms: _180  and  _181
REMARK   69  A    between atoms: _181  and  _182
REMARK   70  A    between atoms: _185  and  _187
REMARK   71  A    between atoms: _187  and  _188
REMARK   72  A    between atoms: _187  and  _190
REMARK   73  A    between atoms: _190  and  _191
REMARK   74  A    between atoms: _194  and  _196
REMARK   75  A    between atoms: _196  and  _197
REMARK   76  A    between atoms: _196  and  _199
REMARK   77  A    between atoms: _199  and  _200
REMARK   78  A    between atoms: _204  and  ZN_380
REMARK   79  A    between atoms: _205  and  _207
REMARK   80  A    between atoms: _207  and  _208
REMARK   81  A    between atoms: _207  and  _210
REMARK   82  A    between atoms: _210  and  _211
REMARK   83  A    between atoms: _216  and  _217
REMARK   84  A    between atoms: _219  and  _221
REMARK   85  A    between atoms: _221  and  _222
REMARK   86  A    between atoms: _224  and  _226
REMARK   87  A    between atoms: _226  and  _227
REMARK   88  A    between atoms: _226  and  _229
REMARK   89  A    between atoms: _229  and  _230
REMARK   90  A    between atoms: _235  and  _237
REMARK   91  A    between atoms: _237  and  _238
REMARK   92  A    between atoms: _237  and  _240
REMARK   93  A    between atoms: _240  and  _241
REMARK   94  A    between atoms: _241  and  _242
REMARK   95  A    between atoms: _242  and  _243
REMARK   96  A    between atoms: _243  and  ZN_380
REMARK   97  A    between atoms: _245  and  _247
REMARK   98  A    between atoms: _247  and  _248
REMARK   99  A    between atoms: _247  and  _250
REMARK  100  A    between atoms: _250  and  _251
REMARK  101  A    between atoms: _253  and  _255
REMARK  102  A    between atoms: _255  and  _256
REMARK  103  A    between atoms: _255  and  _258
REMARK  104  A    between atoms: _258  and  _259
REMARK  105  A    between atoms: _262  and  _264
REMARK  106  A    between atoms: _264  and  _265
REMARK  107  A    between atoms: _264  and  _267
REMARK  108  A    between atoms: _267  and  _268
REMARK  109  A    between atoms: _271  and  _273
REMARK  110  A    between atoms: _273  and  _274
REMARK  111  A    between atoms: _276  and  _278
REMARK  112  A    between atoms: _278  and  _279
REMARK  113  A    between atoms: _278  and  _281
REMARK  114  A    between atoms: _284  and  _286
REMARK  115  A    between atoms: _286  and  _287
REMARK  116  A    between atoms: _286  and  _289
REMARK  117  A    between atoms: _289  and  _290
REMARK  118  A    between atoms: _295  and  _296
REMARK  119  A    between atoms: _298  and  _300
REMARK  120  A    between atoms: _300  and  _301
REMARK  121  A    between atoms: _300  and  _303
REMARK  122  A    between atoms: _303  and  _304
REMARK  123  A    between atoms: _307  and  _309
REMARK  124  A    between atoms: _309  and  _310
REMARK  125  A    between atoms: _309  and  _312
REMARK  126  A    between atoms: _312  and  _313
REMARK  127  A    between atoms: _313  and  _314
REMARK  128  A    between atoms: _314  and  _315
REMARK  129  A    between atoms: _324  and  _326
REMARK  130  A    between atoms: _326  and  _327
REMARK  131  A    between atoms: _326  and  _329
REMARK  132  A    between atoms: _329  and  _330
REMARK  133  A    between atoms: _333  and  _335
REMARK  134  A    between atoms: _335  and  _336
REMARK  135  A    between atoms: _335  and  _338
REMARK  136  A    between atoms: _338  and  _339
REMARK  137  A    between atoms: _344  and  _346
REMARK  138  A    between atoms: _346  and  _347
REMARK  139  A    between atoms: _346  and  _349
REMARK  140  A    between atoms: _352  and  _354
REMARK  141  A    between atoms: _354  and  _355
REMARK  142  A    between atoms: _354  and  _357
REMARK  143  A    between atoms: _357  and  _358
REMARK  144  A    between atoms: _363  and  _365
REMARK  145  A    between atoms: _365  and  _366
REMARK  146  A    between atoms: _365  and  _368
REMARK  147  A    between atoms: _368  and  _369
REMARK  148  A    between atoms: _372  and  _374
REMARK  149  A    between atoms: _374  and  _375
REMARK  150  A    between atoms: _374  and  _377
REMARK  151  A    between atoms: _377  and  _378
REMARK                            x       y       z     vdW  Elec       q    Type
REMARK                         _______ _______ _______ _____ _____    ______ ____
ROOT
ATOM      1  O   HOH     1      52.520  24.117 -12.887  0.00  0.00    +0.000 OA
ENDROOT
TORSDOF 0
REMARK  Name = ../refined-set-2016/1tlp/1tlp_pocket.pdb
REMARK  151 active torsions:
REMARK  status: ('A' for Active; 'I' for Inactive)
REMARK    1  A    between atoms: _1  and  _3
REMARK    2  A    between atoms: _3  and  _4
REMARK    3  A    between atoms: _3  and  _6
REMARK    4  A    between atoms: _6  and  _7
REMARK    5  A    between atoms: _12  and  _13
REMARK    6  A    between atoms: _15  and  _17
REMARK    7  A    between atoms: _17  and  _18
REMARK    8  A    between atoms: _17  and  _20
REMARK    9  A    between atoms: _20  and  _21
REMARK   10  A    between atoms: _26  and  _28
REMARK   11  A    between atoms: _28  and  _29
REMARK   12  A    between atoms: _28  and  _31
REMARK   13  A    between atoms: _31  and  _32
REMARK   14  A    between atoms: _37  and  _39
REMARK   15  A    between atoms: _39  and  _40
REMARK   16  A    between atoms: _43  and  _45
REMARK   17  A    between atoms: _45  and  _46
REMARK   18  A    between atoms: _45  and  _48
REMARK   19  A    between atoms: _48  and  _49
REMARK   20  A    between atoms: _55  and  _57
REMARK   21  A    between atoms: _57  and  _58
REMARK   22  A    between atoms: _57  and  _60
REMARK   23  A    between atoms: _60  and  _61
REMARK   24  A    between atoms: _71  and  _73
REMARK   25  A    between atoms: _73  and  _74
REMARK   26  A    between atoms: _73  and  _76
REMARK   27  A    between atoms: _76  and  _77
REMARK   28  A    between atoms: _82  and  _84
REMARK   29  A    between atoms: _84  and  _85
REMARK   30  A    between atoms: _84  and  _87
REMARK   31  A    between atoms: _90  and  _92
REMARK   32  A    between atoms: _92  and  _93
REMARK   33  A    between atoms: _92  and  _95
REMARK   34  A    between atoms: _95  and  _96
REMARK   35  A    between atoms: _101  and  _102
REMARK   36  A    between atoms: _104  and  _106
REMARK   37  A    between atoms: _106  and  _107
REMARK   38  A    between atoms: _109  and  _111
REMARK   39  A    between atoms: _111  and  _112
REMARK   40  A    between atoms: _111  and  _114
REMARK   41  A    between atoms: _114  and  _115
REMARK   42  A    between atoms: _118  and  _120
REMARK   43  A    between atoms: _120  and  _121
REMARK   44  A    between atoms: _120  and  _123
REMARK   45  A    between atoms: _123  and  _124
REMARK   46  A    between atoms: _130  and  _132
REMARK   47  A    between atoms: _132  and  _133
REMARK   48  A    between atoms: _132  and  _135
REMARK   49  A    between atoms: _135  and  _136
REMARK   50  A    between atoms: _139  and  _141
REMARK   51  A    between atoms: _141  and  _142
REMARK   52  A    between atoms: _141  and  _144
REMARK   53  A    between atoms: _144  and  _145
REMARK   54  A    between atoms: _148  and  _150
REMARK   55  A    between atoms: _150  and  _151
REMARK   56  A    between atoms: _150  and  _153
REMARK   57  A    between atoms: _156  and  _158
REMARK   58  A    between atoms: _158  and  _159
REMARK   59  A    between atoms: _158  and  _161
REMARK   60  A    between atoms: _164  and  _166
REMARK   61  A    between atoms: _166  and  _167
REMARK   62  A    between atoms: _166  and  _169
REMARK   63  A    between atoms: _169  and  _170
REMARK   64  A    between atoms: _174  and  ZN_380
REMARK   65  A    between atoms: _175  and  _177
REMARK   66  A    between atoms: _177  and  _178
REMARK   67  A    between atoms: _177  and  _180
REMARK   68  A    between atoms: _180  and  _181
REMARK   69  A    between atoms: _181  and  _182
REMARK   70  A    between atoms: _185  and  _187
REMARK   71  A    between atoms: _187  and  _188
REMARK   72  A    between atoms: _187  and  _190
REMARK   73  A    between atoms: _190  and  _191
REMARK   74  A    between atoms: _194  and  _196
REMARK   75  A    between atoms: _196  and  _197
REMARK   76  A    between atoms: _196  and  _199
REMARK   77  A    between atoms: _199  and  _200
REMARK   78  A    between atoms: _204  and  ZN_380
REMARK   79  A    between atoms: _205  and  _207
REMARK   80  A    between atoms: _207  and  _208
REMARK   81  A    between atoms: _207  and  _210
REMARK   82  A    between atoms: _210  and  _211
REMARK   83  A    between atoms: _216  and  _217
REMARK   84  A    between atoms: _219  and  _221
REMARK   85  A    between atoms: _221  and  _222
REMARK   86  A    between atoms: _224  and  _226
REMARK   87  A    between atoms: _226  and  _227
REMARK   88  A    between atoms: _226  and  _229
REMARK   89  A    between atoms: _229  and  _230
REMARK   90  A    between atoms: _235  and  _237
REMARK   91  A    between atoms: _237  and  _238
REMARK   92  A    between atoms: _237  and  _240
REMARK   93  A    between atoms: _240  and  _241
REMARK   94  A    between atoms: _241  and  _242
REMARK   95  A    between atoms: _242  and  _243
REMARK   96  A    between atoms: _243  and  ZN_380
REMARK   97  A    between atoms: _245  and  _247
REMARK   98  A    between atoms: _247  and  _248
REMARK   99  A    between atoms: _247  and  _250
REMARK  100  A    between atoms: _250  and  _251
REMARK  101  A    between atoms: _253  and  _255
REMARK  102  A    between atoms: _255  and  _256
REMARK  103  A    between atoms: _255  and  _258
REMARK  104  A    between atoms: _258  and  _259
REMARK  105  A    between atoms: _262  and  _264
REMARK  106  A    between atoms: _264  and  _265
REMARK  107  A    between atoms: _264  and  _267
REMARK  108  A    between atoms: _267  and  _268
REMARK  109  A    between atoms: _271  and  _273
REMARK  110  A    between atoms: _273  and  _274
REMARK  111  A    between atoms: _276  and  _278
REMARK  112  A    between atoms: _278  and  _279
REMARK  113  A    between atoms: _278  and  _281
REMARK  114  A    between atoms: _284  and  _286
REMARK  115  A    between atoms: _286  and  _287
REMARK  116  A    between atoms: _286  and  _289
REMARK  117  A    between atoms: _289  and  _290
REMARK  118  A    between atoms: _295  and  _296
REMARK  119  A    between atoms: _298  and  _300
REMARK  120  A    between atoms: _300  and  _301
REMARK  121  A    between atoms: _300  and  _303
REMARK  122  A    between atoms: _303  and  _304
REMARK  123  A    between atoms: _307  and  _309
REMARK  124  A    between atoms: _309  and  _310
REMARK  125  A    between atoms: _309  and  _312
REMARK  126  A    between atoms: _312  and  _313
REMARK  127  A    between atoms: _313  and  _314
REMARK  128  A    between atoms: _314  and  _315
REMARK  129  A    between atoms: _324  and  _326
REMARK  130  A    between atoms: _326  and  _327
REMARK  131  A    between atoms: _326  and  _329
REMARK  132  A    between atoms: _329  and  _330
REMARK  133  A    between atoms: _333  and  _335
REMARK  134  A    between atoms: _335  and  _336
REMARK  135  A    between atoms: _335  and  _338
REMARK  136  A    between atoms: _338  and  _339
REMARK  137  A    between atoms: _344  and  _346
REMARK  138  A    between atoms: _346  and  _347
REMARK  139  A    between atoms: _346  and  _349
REMARK  140  A    between atoms: _352  and  _354
REMARK  141  A    between atoms: _354  and  _355
REMARK  142  A    between atoms: _354  and  _357
REMARK  143  A    between atoms: _357  and  _358
REMARK  144  A    between atoms: _363  and  _365
REMARK  145  A    between atoms: _365  and  _366
REMARK  146  A    between atoms: _365  and  _368
REMARK  147  A    between atoms: _368  and  _369
REMARK  148  A    between atoms: _372  and  _374
REMARK  149  A    between atoms: _374  and  _375
REMARK  150  A    between atoms: _374  and  _377
REMARK  151  A    between atoms: _377  and  _378
REMARK                            x       y       z     vdW  Elec       q    Type
REMARK                         _______ _______ _______ _____ _____    ______ ____
ROOT
ATOM      1  O   HOH     1      51.769  22.077 -14.886  0.00  0.00    +0.000 OA
ENDROOT
TORSDOF 0
REMARK  Name = ../refined-set-2016/1tlp/1tlp_pocket.pdb
REMARK  151 active torsions:
REMARK  status: ('A' for Active; 'I' for Inactive)
REMARK    1  A    between atoms: _1  and  _3
REMARK    2  A    between atoms: _3  and  _4
REMARK    3  A    between atoms: _3  and  _6
REMARK    4  A    between atoms: _6  and  _7
REMARK    5  A    between atoms: _12  and  _13
REMARK    6  A    between atoms: _15  and  _17
REMARK    7  A    between atoms: _17  and  _18
REMARK    8  A    between atoms: _17  and  _20
REMARK    9  A    between atoms: _20  and  _21
REMARK   10  A    between atoms: _26  and  _28
REMARK   11  A    between atoms: _28  and  _29
REMARK   12  A    between atoms: _28  and  _31
REMARK   13  A    between atoms: _31  and  _32
REMARK   14  A    between atoms: _37  and  _39
REMARK   15  A    between atoms: _39  and  _40
REMARK   16  A    between atoms: _43  and  _45
REMARK   17  A    between atoms: _45  and  _46
REMARK   18  A    between atoms: _45  and  _48
REMARK   19  A    between atoms: _48  and  _49
REMARK   20  A    between atoms: _55  and  _57
REMARK   21  A    between atoms: _57  and  _58
REMARK   22  A    between atoms: _57  and  _60
REMARK   23  A    between atoms: _60  and  _61
REMARK   24  A    between atoms: _71  and  _73
REMARK   25  A    between atoms: _73  and  _74
REMARK   26  A    between atoms: _73  and  _76
REMARK   27  A    between atoms: _76  and  _77
REMARK   28  A    between atoms: _82  and  _84
REMARK   29  A    between atoms: _84  and  _85
REMARK   30  A    between atoms: _84  and  _87
REMARK   31  A    between atoms: _90  and  _92
REMARK   32  A    between atoms: _92  and  _93
REMARK   33  A    between atoms: _92  and  _95
REMARK   34  A    between atoms: _95  and  _96
REMARK   35  A    between atoms: _101  and  _102
REMARK   36  A    between atoms: _104  and  _106
REMARK   37  A    between atoms: _106  and  _107
REMARK   38  A    between atoms: _109  and  _111
REMARK   39  A    between atoms: _111  and  _112
REMARK   40  A    between atoms: _111  and  _114
REMARK   41  A    between atoms: _114  and  _115
REMARK   42  A    between atoms: _118  and  _120
REMARK   43  A    between atoms: _120  and  _121
REMARK   44  A    between atoms: _120  and  _123
REMARK   45  A    between atoms: _123  and  _124
REMARK   46  A    between atoms: _130  and  _132
REMARK   47  A    between atoms: _132  and  _133
REMARK   48  A    between atoms: _132  and  _135
REMARK   49  A    between atoms: _135  and  _136
REMARK   50  A    between atoms: _139  and  _141
REMARK   51  A    between atoms: _141  and  _142
REMARK   52  A    between atoms: _141  and  _144
REMARK   53  A    between atoms: _144  and  _145
REMARK   54  A    between atoms: _148  and  _150
REMARK   55  A    between atoms: _150  and  _151
REMARK   56  A    between atoms: _150  and  _153
REMARK   57  A    between atoms: _156  and  _158
REMARK   58  A    between atoms: _158  and  _159
REMARK   59  A    between atoms: _158  and  _161
REMARK   60  A    between atoms: _164  and  _166
REMARK   61  A    between atoms: _166  and  _167
REMARK   62  A    between atoms: _166  and  _169
REMARK   63  A    between atoms: _169  and  _170
REMARK   64  A    between atoms: _174  and  ZN_380
REMARK   65  A    between atoms: _175  and  _177
REMARK   66  A    between atoms: _177  and  _178
REMARK   67  A    between atoms: _177  and  _180
REMARK   68  A    between atoms: _180  and  _181
REMARK   69  A    between atoms: _181  and  _182
REMARK   70  A    between atoms: _185  and  _187
REMARK   71  A    between atoms: _187  and  _188
REMARK   72  A    between atoms: _187  and  _190
REMARK   73  A    between atoms: _190  and  _191
REMARK   74  A    between atoms: _194  and  _196
REMARK   75  A    between atoms: _196  and  _197
REMARK   76  A    between atoms: _196  and  _199
REMARK   77  A    between atoms: _199  and  _200
REMARK   78  A    between atoms: _204  and  ZN_380
REMARK   79  A    between atoms: _205  and  _207
REMARK   80  A    between atoms: _207  and  _208
REMARK   81  A    between atoms: _207  and  _210
REMARK   82  A    between atoms: _210  and  _211
REMARK   83  A    between atoms: _216  and  _217
REMARK   84  A    between atoms: _219  and  _221
REMARK   85  A    between atoms: _221  and  _222
REMARK   86  A    between atoms: _224  and  _226
REMARK   87  A    between atoms: _226  and  _227
REMARK   88  A    between atoms: _226  and  _229
REMARK   89  A    between atoms: _229  and  _230
REMARK   90  A    between atoms: _235  and  _237
REMARK   91  A    between atoms: _237  and  _238
REMARK   92  A    between atoms: _237  and  _240
REMARK   93  A    between atoms: _240  and  _241
REMARK   94  A    between atoms: _241  and  _242
REMARK   95  A    between atoms: _242  and  _243
REMARK   96  A    between atoms: _243  and  ZN_380
REMARK   97  A    between atoms: _245  and  _247
REMARK   98  A    between atoms: _247  and  _248
REMARK   99  A    between atoms: _247  and  _250
REMARK  100  A    between atoms: _250  and  _251
REMARK  101  A    between atoms: _253  and  _255
REMARK  102  A    between atoms: _255  and  _256
REMARK  103  A    between atoms: _255  and  _258
REMARK  104  A    between atoms: _258  and  _259
REMARK  105  A    between atoms: _262  and  _264
REMARK  106  A    between atoms: _264  and  _265
REMARK  107  A    between atoms: _264  and  _267
REMARK  108  A    between atoms: _267  and  _268
REMARK  109  A    between atoms: _271  and  _273
REMARK  110  A    between atoms: _273  and  _274
REMARK  111  A    between atoms: _276  and  _278
REMARK  112  A    between atoms: _278  and  _279
REMARK  113  A    between atoms: _278  and  _281
REMARK  114  A    between atoms: _284  and  _286
REMARK  115  A    between atoms: _286  and  _287
REMARK  116  A    between atoms: _286  and  _289
REMARK  117  A    between atoms: _289  and  _290
REMARK  118  A    between atoms: _295  and  _296
REMARK  119  A    between atoms: _298  and  _300
REMARK  120  A    between atoms: _300  and  _301
REMARK  121  A    between atoms: _300  and  _303
REMARK  122  A    between atoms: _303  and  _304
REMARK  123  A    between atoms: _307  and  _309
REMARK  124  A    between atoms: _309  and  _310
REMARK  125  A    between atoms: _309  and  _312
REMARK  126  A    between atoms: _312  and  _313
REMARK  127  A    between atoms: _313  and  _314
REMARK  128  A    between atoms: _314  and  _315
REMARK  129  A    between atoms: _324  and  _326
REMARK  130  A    between atoms: _326  and  _327
REMARK  131  A    between atoms: _326  and  _329
REMARK  132  A    between atoms: _329  and  _330
REMARK  133  A    between atoms: _333  and  _335
REMARK  134  A    between atoms: _335  and  _336
REMARK  135  A    between atoms: _335  and  _338
REMARK  136  A    between atoms: _338  and  _339
REMARK  137  A    between atoms: _344  and  _346
REMARK  138  A    between atoms: _346  and  _347
REMARK  139  A    between atoms: _346  and  _349
REMARK  140  A    between atoms: _352  and  _354
REMARK  141  A    between atoms: _354  and  _355
REMARK  142  A    between atoms: _354  and  _357
REMARK  143  A    between atoms: _357  and  _358
REMARK  144  A    between atoms: _363  and  _365
REMARK  145  A    between atoms: _365  and  _366
REMARK  146  A    between atoms: _365  and  _368
REMARK  147  A    between atoms: _368  and  _369
REMARK  148  A    between atoms: _372  and  _374
REMARK  149  A    between atoms: _374  and  _375
REMARK  150  A    between atoms: _374  and  _377
REMARK  151  A    between atoms: _377  and  _378
REMARK                            x       y       z     vdW  Elec       q    Type
REMARK                         _______ _______ _______ _____ _____    ______ ____
ROOT
ATOM      1  O   HOH     1      44.604  19.264 -12.224  0.00  0.00    +0.000 OA
ENDROOT
TORSDOF 0
REMARK  Name = ../refined-set-2016/1tlp/1tlp_pocket.pdb
REMARK  151 active torsions:
REMARK  status: ('A' for Active; 'I' for Inactive)
REMARK    1  A    between atoms: _1  and  _3
REMARK    2  A    between atoms: _3  and  _4
REMARK    3  A    between atoms: _3  and  _6
REMARK    4  A    between atoms: _6  and  _7
REMARK    5  A    between atoms: _12  and  _13
REMARK    6  A    between atoms: _15  and  _17
REMARK    7  A    between atoms: _17  and  _18
REMARK    8  A    between atoms: _17  and  _20
REMARK    9  A    between atoms: _20  and  _21
REMARK   10  A    between atoms: _26  and  _28
REMARK   11  A    between atoms: _28  and  _29
REMARK   12  A    between atoms: _28  and  _31
REMARK   13  A    between atoms: _31  and  _32
REMARK   14  A    between atoms: _37  and  _39
REMARK   15  A    between atoms: _39  and  _40
REMARK   16  A    between atoms: _43  and  _45
REMARK   17  A    between atoms: _45  and  _46
REMARK   18  A    between atoms: _45  and  _48
REMARK   19  A    between atoms: _48  and  _49
REMARK   20  A    between atoms: _55  and  _57
REMARK   21  A    between atoms: _57  and  _58
REMARK   22  A    between atoms: _57  and  _60
REMARK   23  A    between atoms: _60  and  _61
REMARK   24  A    between atoms: _71  and  _73
REMARK   25  A    between atoms: _73  and  _74
REMARK   26  A    between atoms: _73  and  _76
REMARK   27  A    between atoms: _76  and  _77
REMARK   28  A    between atoms: _82  and  _84
REMARK   29  A    between atoms: _84  and  _85
REMARK   30  A    between atoms: _84  and  _87
REMARK   31  A    between atoms: _90  and  _92
REMARK   32  A    between atoms: _92  and  _93
REMARK   33  A    between atoms: _92  and  _95
REMARK   34  A    between atoms: _95  and  _96
REMARK   35  A    between atoms: _101  and  _102
REMARK   36  A    between atoms: _104  and  _106
REMARK   37  A    between atoms: _106  and  _107
REMARK   38  A    between atoms: _109  and  _111
REMARK   39  A    between atoms: _111  and  _112
REMARK   40  A    between atoms: _111  and  _114
REMARK   41  A    between atoms: _114  and  _115
REMARK   42  A    between atoms: _118  and  _120
REMARK   43  A    between atoms: _120  and  _121
REMARK   44  A    between atoms: _120  and  _123
REMARK   45  A    between atoms: _123  and  _124
REMARK   46  A    between atoms: _130  and  _132
REMARK   47  A    between atoms: _132  and  _133
REMARK   48  A    between atoms: _132  and  _135
REMARK   49  A    between atoms: _135  and  _136
REMARK   50  A    between atoms: _139  and  _141
REMARK   51  A    between atoms: _141  and  _142
REMARK   52  A    between atoms: _141  and  _144
REMARK   53  A    between atoms: _144  and  _145
REMARK   54  A    between atoms: _148  and  _150
REMARK   55  A    between atoms: _150  and  _151
REMARK   56  A    between atoms: _150  and  _153
REMARK   57  A    between atoms: _156  and  _158
REMARK   58  A    between atoms: _158  and  _159
REMARK   59  A    between atoms: _158  and  _161
REMARK   60  A    between atoms: _164  and  _166
REMARK   61  A    between atoms: _166  and  _167
REMARK   62  A    between atoms: _166  and  _169
REMARK   63  A    between atoms: _169  and  _170
REMARK   64  A    between atoms: _174  and  ZN_380
REMARK   65  A    between atoms: _175  and  _177
REMARK   66  A    between atoms: _177  and  _178
REMARK   67  A    between atoms: _177  and  _180
REMARK   68  A    between atoms: _180  and  _181
REMARK   69  A    between atoms: _181  and  _182
REMARK   70  A    between atoms: _185  and  _187
REMARK   71  A    between atoms: _187  and  _188
REMARK   72  A    between atoms: _187  and  _190
REMARK   73  A    between atoms: _190  and  _191
REMARK   74  A    between atoms: _194  and  _196
REMARK   75  A    between atoms: _196  and  _197
REMARK   76  A    between atoms: _196  and  _199
REMARK   77  A    between atoms: _199  and  _200
REMARK   78  A    between atoms: _204  and  ZN_380
REMARK   79  A    between atoms: _205  and  _207
REMARK   80  A    between atoms: _207  and  _208
REMARK   81  A    between atoms: _207  and  _210
REMARK   82  A    between atoms: _210  and  _211
REMARK   83  A    between atoms: _216  and  _217
REMARK   84  A    between atoms: _219  and  _221
REMARK   85  A    between atoms: _221  and  _222
REMARK   86  A    between atoms: _224  and  _226
REMARK   87  A    between atoms: _226  and  _227
REMARK   88  A    between atoms: _226  and  _229
REMARK   89  A    between atoms: _229  and  _230
REMARK   90  A    between atoms: _235  and  _237
REMARK   91  A    between atoms: _237  and  _238
REMARK   92  A    between atoms: _237  and  _240
REMARK   93  A    between atoms: _240  and  _241
REMARK   94  A    between atoms: _241  and  _242
REMARK   95  A    between atoms: _242  and  _243
REMARK   96  A    between atoms: _243  and  ZN_380
REMARK   97  A    between atoms: _245  and  _247
REMARK   98  A    between atoms: _247  and  _248
REMARK   99  A    between atoms: _247  and  _250
REMARK  100  A    between atoms: _250  and  _251
REMARK  101  A    between atoms: _253  and  _255
REMARK  102  A    between atoms: _255  and  _256
REMARK  103  A    between atoms: _255  and  _258
REMARK  104  A    between atoms: _258  and  _259
REMARK  105  A    between atoms: _262  and  _264
REMARK  106  A    between atoms: _264  and  _265
REMARK  107  A    between atoms: _264  and  _267
REMARK  108  A    between atoms: _267  and  _268
REMARK  109  A    between atoms: _271  and  _273
REMARK  110  A    between atoms: _273  and  _274
REMARK  111  A    between atoms: _276  and  _278
REMARK  112  A    between atoms: _278  and  _279
REMARK  113  A    between atoms: _278  and  _281
REMARK  114  A    between atoms: _284  and  _286
REMARK  115  A    between atoms: _286  and  _287
REMARK  116  A    between atoms: _286  and  _289
REMARK  117  A    between atoms: _289  and  _290
REMARK  118  A    between atoms: _295  and  _296
REMARK  119  A    between atoms: _298  and  _300
REMARK  120  A    between atoms: _300  and  _301
REMARK  121  A    between atoms: _300  and  _303
REMARK  122  A    between atoms: _303  and  _304
REMARK  123  A    between atoms: _307  and  _309
REMARK  124  A    between atoms: _309  and  _310
REMARK  125  A    between atoms: _309  and  _312
REMARK  126  A    between atoms: _312  and  _313
REMARK  127  A    between atoms: _313  and  _314
REMARK  128  A    between atoms: _314  and  _315
REMARK  129  A    between atoms: _324  and  _326
REMARK  130  A    between atoms: _326  and  _327
REMARK  131  A    between atoms: _326  and  _329
REMARK  132  A    between atoms: _329  and  _330
REMARK  133  A    between atoms: _333  and  _335
REMARK  134  A    between atoms: _335  and  _336
REMARK  135  A    between atoms: _335  and  _338
REMARK  136  A    between atoms: _338  and  _339
REMARK  137  A    between atoms: _344  and  _346
REMARK  138  A    between atoms: _346  and  _347
REMARK  139  A    between atoms: _346  and  _349
REMARK  140  A    between atoms: _352  and  _354
REMARK  141  A    between atoms: _354  and  _355
REMARK  142  A    between atoms: _354  and  _357
REMARK  143  A    between atoms: _357  and  _358
REMARK  144  A    between atoms: _363  and  _365
REMARK  145  A    between atoms: _365  and  _366
REMARK  146  A    between atoms: _365  and  _368
REMARK  147  A    between atoms: _368  and  _369
REMARK  148  A    between atoms: _372  and  _374
REMARK  149  A    between atoms: _374  and  _375
REMARK  150  A    between atoms: _374  and  _377
REMARK  151  A    between atoms: _377  and  _378
REMARK                            x       y       z     vdW  Elec       q    Type
REMARK                         _______ _______ _______ _____ _____    ______ ____
ROOT
ATOM      1  O   HOH     1      49.809  21.386  -8.034  0.00  0.00    +0.000 OA
ENDROOT
TORSDOF 0
