REMARK  Name = ../refined-set-2016/2eg8/2eg8_pocket.pdb
REMARK  137 active torsions:
REMARK  status: ('A' for Active; 'I' for Inactive)
REMARK    1  A    between atoms: _1  and  _3
REMARK    2  A    between atoms: _14  and  _17
REMARK    3  A    between atoms: _17  and  _18
REMARK    4  A    between atoms: _23  and  _24
REMARK    5  A    between atoms: _32  and  _34
REMARK    6  A    between atoms: _34  and  _35
REMARK    7  A    between atoms: _34  and  _37
REMARK    8  A    between atoms: _37  and  _38
REMARK    9  A    between atoms: _41  and  _43
REMARK   10  A    between atoms: _43  and  _44
REMARK   11  A    between atoms: _43  and  _46
REMARK   12  A    between atoms: _46  and  _47
REMARK   13  A    between atoms: _47  and  _48
REMARK   14  A    between atoms: _48  and  _49
REMARK   15  A    between atoms: _58  and  _60
REMARK   16  A    between atoms: _60  and  _61
REMARK   17  A    between atoms: _60  and  _63
REMARK   18  A    between atoms: _63  and  _64
REMARK   19  A    between atoms: _64  and  _65
REMARK   20  A    between atoms: _68  and  _69
REMARK   21  A    between atoms: _74  and  _76
REMARK   22  A    between atoms: _76  and  _77
REMARK   23  A    between atoms: _76  and  _79
REMARK   24  A    between atoms: _79  and  _80
REMARK   25  A    between atoms: _85  and  _87
REMARK   26  A    between atoms: _87  and  _88
REMARK   27  A    between atoms: _87  and  _90
REMARK   28  A    between atoms: _90  and  _91
REMARK   29  A    between atoms: _94  and  _96
REMARK   30  A    between atoms: _96  and  _97
REMARK   31  A    between atoms: _96  and  _99
REMARK   32  A    between atoms: _99  and  _100
REMARK   33  A    between atoms: _105  and  _106
REMARK   34  A    between atoms: _108  and  _110
REMARK   35  A    between atoms: _110  and  _111
REMARK   36  A    between atoms: _110  and  _117
REMARK   37  A    between atoms: _111  and  _112
REMARK   38  A    between atoms: _112  and  _113
REMARK   39  A    between atoms: _113  and  _114
REMARK   40  A    between atoms: _114  and  _115
REMARK   41  A    between atoms: _115  and  _119
REMARK   42  A    between atoms: _122  and  _124
REMARK   43  A    between atoms: _124  and  _125
REMARK   44  A    between atoms: _124  and  _127
REMARK   45  A    between atoms: _127  and  _128
REMARK   46  A    between atoms: _133  and  _134
REMARK   47  A    between atoms: _137  and  _138
REMARK   48  A    between atoms: _143  and  _145
REMARK   49  A    between atoms: _145  and  _146
REMARK   50  A    between atoms: _145  and  _148
REMARK   51  A    between atoms: _148  and  _149
REMARK   52  A    between atoms: _150  and  ZN_356
REMARK   53  A    between atoms: _154  and  _156
REMARK   54  A    between atoms: _156  and  _157
REMARK   55  A    between atoms: _159  and  _161
REMARK   56  A    between atoms: _161  and  _162
REMARK   57  A    between atoms: _161  and  _164
REMARK   58  A    between atoms: _164  and  _165
REMARK   59  A    between atoms: _165  and  _166
REMARK   60  A    between atoms: _169  and  _171
REMARK   61  A    between atoms: _171  and  _172
REMARK   62  A    between atoms: _171  and  _174
REMARK   63  A    between atoms: _174  and  _175
REMARK   64  A    between atoms: _175  and  _176
REMARK   65  A    between atoms: _179  and  _181
REMARK   66  A    between atoms: _181  and  _182
REMARK   67  A    between atoms: _181  and  _184
REMARK   68  A    between atoms: _184  and  _185
REMARK   69  A    between atoms: _189  and  ZN_356
REMARK   70  A    between atoms: _190  and  _192
REMARK   71  A    between atoms: _192  and  _193
REMARK   72  A    between atoms: _192  and  _195
REMARK   73  A    between atoms: _195  and  _196
REMARK   74  A    between atoms: _199  and  _201
REMARK   75  A    between atoms: _201  and  _202
REMARK   76  A    between atoms: _201  and  _204
REMARK   77  A    between atoms: _204  and  _205
REMARK   78  A    between atoms: _205  and  _206
REMARK   79  A    between atoms: _211  and  _213
REMARK   80  A    between atoms: _213  and  _214
REMARK   81  A    between atoms: _213  and  _216
REMARK   82  A    between atoms: _216  and  _217
REMARK   83  A    between atoms: _222  and  _224
REMARK   84  A    between atoms: _224  and  _225
REMARK   85  A    between atoms: _224  and  _227
REMARK   86  A    between atoms: _227  and  _228
REMARK   87  A    between atoms: _231  and  _233
REMARK   88  A    between atoms: _233  and  _234
REMARK   89  A    between atoms: _233  and  _236
REMARK   90  A    between atoms: _236  and  _237
REMARK   91  A    between atoms: _242  and  _243
REMARK   92  A    between atoms: _245  and  _247
REMARK   93  A    between atoms: _247  and  _248
REMARK   94  A    between atoms: _247  and  _250
REMARK   95  A    between atoms: _252  and  _254
REMARK   96  A    between atoms: _254  and  _255
REMARK   97  A    between atoms: _254  and  _257
REMARK   98  A    between atoms: _257  and  _258
REMARK   99  A    between atoms: _262  and  _263
REMARK  100  A    between atoms: _268  and  _270
REMARK  101  A    between atoms: _270  and  _271
REMARK  102  A    between atoms: _270  and  _273
REMARK  103  A    between atoms: _273  and  _274
REMARK  104  A    between atoms: _277  and  _279
REMARK  105  A    between atoms: _279  and  _280
REMARK  106  A    between atoms: _279  and  _282
REMARK  107  A    between atoms: _282  and  _283
REMARK  108  A    between atoms: _283  and  _284
REMARK  109  A    between atoms: _284  and  ZN_357
REMARK  110  A    between atoms: _286  and  _288
REMARK  111  A    between atoms: _288  and  _289
REMARK  112  A    between atoms: _288  and  _291
REMARK  113  A    between atoms: _291  and  _292
REMARK  114  A    between atoms: _294  and  _296
REMARK  115  A    between atoms: _296  and  _297
REMARK  116  A    between atoms: _301  and  _302
REMARK  117  A    between atoms: _307  and  _309
REMARK  118  A    between atoms: _309  and  _310
REMARK  119  A    between atoms: _309  and  _312
REMARK  120  A    between atoms: _312  and  _313
REMARK  121  A    between atoms: _318  and  _320
REMARK  122  A    between atoms: _320  and  _321
REMARK  123  A    between atoms: _320  and  _323
REMARK  124  A    between atoms: _323  and  _324
REMARK  125  A    between atoms: _324  and  _325
REMARK  126  A    between atoms: _325  and  _326
REMARK  127  A    between atoms: _326  and  _327
REMARK  128  A    between atoms: _331  and  _333
REMARK  129  A    between atoms: _333  and  _334
REMARK  130  A    between atoms: _333  and  _336
REMARK  131  A    between atoms: _338  and  _340
REMARK  132  A    between atoms: _340  and  _341
REMARK  133  A    between atoms: _344  and  _346
REMARK  134  A    between atoms: _346  and  _347
REMARK  135  A    between atoms: _349  and  _351
REMARK  136  A    between atoms: _351  and  _352
REMARK  137  A    between atoms: _351  and  _354
REMARK                            x       y       z     vdW  Elec       q    Type
REMARK                         _______ _______ _______ _____ _____    ______ ____
ROOT
ATOM      1  C   UNK A   1      30.809  42.817  81.578  0.00  0.00    +0.000 C 
ATOM      2  C   UNK A   1      29.354  43.221  81.299  0.00  0.00    +0.000 C 
ATOM      3  O   UNK A   1      28.426  42.421  81.437  0.00  0.00    +0.000 OA
ATOM      4  N   UNK A   2      29.150  44.460  80.863  0.00  0.00    +0.000 N 
ATOM      5  C   UNK A   2      27.804  44.997  80.789  0.00  0.00    +0.000 C 
ATOM      6  C   UNK A   2      27.553  45.875  79.545  0.00  0.00    +0.000 C 
ATOM      7  O   UNK A   2      28.375  46.717  79.205  0.00  0.00    +0.000 OA
ATOM      8  N   UNK A   3      26.387  45.686  78.916  0.00  0.00    +0.000 N 
ATOM      9  H   UNK A   3      25.805  44.867  79.185  0.00  0.00    +0.000 HD
ATOM     10  C   UNK A   3      25.891  46.586  77.860  0.00  0.00    +0.000 C 
ATOM     11  C   UNK A   3      25.470  45.777  76.632  0.00  0.00    +0.000 C 
ATOM     12  C   UNK A   3      26.575  44.952  76.073  0.00  0.00    +0.000 A 
ATOM     13  C   UNK A   3      26.924  43.654  76.283  0.00  0.00    +0.000 A 
ATOM     14  N   UNK A   3      28.065  43.422  75.556  0.00  0.00    +0.000 N 
ATOM     15 ZN   UNK A   1      29.235  41.715  75.686  0.00  0.00    +0.000 Zn
ATOM     16  N   UNK A   1      30.603  41.436  77.350  0.00  0.00    +0.000 N 
ATOM     17  C   UNK A   1      30.186  41.849  78.595  0.00  0.00    +0.000 A 
ATOM     18  C   UNK A   1      31.072  41.358  79.496  0.00  0.00    +0.000 A 
ATOM     19  N   UNK A   1      32.008  40.648  78.765  0.00  0.00    +0.000 NA
ATOM     20  C   UNK A   1      31.694  40.705  77.483  0.00  0.00    +0.000 A 
ATOM     21  O   UNK A   1      30.882  42.659  74.473  0.00  0.00    +0.000 OA
ATOM     22  C   UNK A   1      32.009  42.105  74.450  0.00  0.00    +0.000 C 
ATOM     23  O   UNK A   1      32.195  40.893  74.223  0.00  0.00    +0.000 OA
ATOM     24 ZN   UNK A   2      30.981  39.469  73.622  0.00  0.00    +0.000 Zn
ATOM     25  O   UNK A   1      29.062  40.185  74.440  0.00  0.00    +0.000 OA
ATOM     26  C   UNK A   3      28.416  44.537  74.940  0.00  0.00    +0.000 A 
ATOM     27  N   UNK A   3      27.532  45.480  75.234  0.00  0.00    +0.000 NA
ATOM     28  H   UNK A   2      29.958  45.047  80.574  0.00  0.00    +0.000 HD
ATOM     29  C   UNK A   1      31.118  41.435  80.993  0.00  0.00    +0.000 C 
ENDROOT
BRANCH  24  30
ATOM     30  N   UNK A   1      31.768  38.582  71.851  0.00  0.00    +0.000 N 
ATOM     31  C   UNK A   1      33.102  38.363  71.572  0.00  0.00    +0.000 A 
ATOM     32  C   UNK A   1      33.137  37.277  70.766  0.00  0.00    +0.000 A 
ATOM     33  N   UNK A   1      31.839  36.883  70.550  0.00  0.00    +0.000 NA
ATOM     34  C   UNK A   1      31.034  37.680  71.224  0.00  0.00    +0.000 A 
BRANCH  31  35
ATOM     35  C   UNK A   1      34.200  39.219  72.130  0.00  0.00    +0.000 C 
BRANCH  35  36
ATOM     36  C   UNK A   1      35.284  38.442  72.874  0.00  0.00    +0.000 C 
BRANCH  36  37
ATOM     37  C   UNK A   1      35.991  37.402  71.956  0.00  0.00    +0.000 C 
ATOM     38  N   UNK A   2      36.173  36.200  72.492  0.00  0.00    +0.000 N 
ATOM     39  H   UNK A   2      35.659  35.960  73.364  0.00  0.00    +0.000 HD
ATOM     40  O   UNK A   1      36.349  37.692  70.800  0.00  0.00    +0.000 OA
BRANCH  38  41
ATOM     41  C   UNK A   2      37.063  35.204  71.908  0.00  0.00    +0.000 C 
BRANCH  41  42
ATOM     42  C   UNK A   2      36.395  34.276  70.920  0.00  0.00    +0.000 C 
ATOM     43  O   UNK A   2      36.123  33.095  71.239  0.00  0.00    +0.000 OA
ATOM     44  N   UNK A   3      36.140  34.821  69.726  0.00  0.00    +0.000 N 
ATOM     45  H   UNK A   3      36.301  35.842  69.608  0.00  0.00    +0.000 HD
BRANCH  44  46
ATOM     46  C   UNK A   3      35.644  34.058  68.568  0.00  0.00    +0.000 C 
BRANCH  46  47
ATOM     47  C   UNK A   3      36.308  34.483  67.252  0.00  0.00    +0.000 C 
ATOM     48  O   UNK A   3      36.575  35.657  67.040  0.00  0.00    +0.000 OA
ENDBRANCH  46  47
BRANCH  46  49
ATOM     49  C   UNK A   3      34.137  34.235  68.422  0.00  0.00    +0.000 C 
BRANCH  49  50
ATOM     50  C   UNK A   3      33.336  33.567  69.529  0.00  0.00    +0.000 C 
BRANCH  50  51
ATOM     51  C   UNK A   3      31.862  33.519  69.201  0.00  0.00    +0.000 C 
ATOM     52  O   UNK A   3      31.249  34.603  69.083  0.00  0.00    +0.000 OA
ATOM     53  O   UNK A   3      31.311  32.399  69.043  0.00  0.00    +0.000 OA
ENDBRANCH  50  51
ENDBRANCH  49  50
ENDBRANCH  46  49
ENDBRANCH  44  46
ENDBRANCH  41  42
ENDBRANCH  38  41
ENDBRANCH  36  37
BRANCH  36  54
ATOM     54  N   UNK A   1      36.344  39.317  73.330  0.00  0.00    +0.000 NA
ATOM     55  H   UNK A   1      36.497  40.224  72.845  0.00  0.00    +0.000 HD
ENDBRANCH  36  54
ENDBRANCH  35  36
ENDBRANCH  31  35
ENDBRANCH  24  30
BRANCH  24  56
ATOM     56  N   UNK A   2      31.427  37.854  74.928  0.00  0.00    +0.000 N 
ATOM     57  C   UNK A   2      30.786  37.723  76.131  0.00  0.00    +0.000 A 
ATOM     58  C   UNK A   2      31.173  36.540  76.659  0.00  0.00    +0.000 A 
ATOM     59  N   UNK A   2      32.021  35.969  75.738  0.00  0.00    +0.000 NA
ATOM     60  C   UNK A   2      32.157  36.778  74.711  0.00  0.00    +0.000 A 
BRANCH  58  61
ATOM     61  C   UNK A   2      30.784  35.859  77.931  0.00  0.00    +0.000 C 
BRANCH  61  62
ATOM     62  C   UNK A   2      31.953  35.201  78.673  0.00  0.00    +0.000 C 
BRANCH  62  63
ATOM     63  N   UNK A   2      33.046  36.157  78.850  0.00  0.00    +0.000 N 
ATOM     64  H   UNK A   2      32.980  36.824  79.645  0.00  0.00    +0.000 HD
ATOM     65  C   UNK A   1      34.123  36.234  78.063  0.00  0.00    +0.000 C 
ATOM     66  O   UNK A   1      34.346  35.471  77.155  0.00  0.00    +0.000 OA
BRANCH  65  67
ATOM     67  C   UNK A   1      35.054  37.386  78.345  0.00  0.00    +0.000 C 
BRANCH  67  68
ATOM     68  N   UNK A   1      36.448  37.089  77.972  0.00  0.00    +0.000 NA
ATOM     69  H   UNK A   1      36.894  37.604  77.186  0.00  0.00    +0.000 HD
ENDBRANCH  67  68
BRANCH  67  70
ATOM     70  C   UNK A   1      34.507  38.642  77.633  0.00  0.00    +0.000 C 
BRANCH  70  71
ATOM     71  C   UNK A   1      35.240  39.953  77.967  0.00  0.00    +0.000 C 
BRANCH  71  72
ATOM     72  C   UNK A   1      35.178  40.321  79.456  0.00  0.00    +0.000 C 
ATOM     73  O   UNK A   1      34.158  40.029  80.100  0.00  0.00    +0.000 OA
ATOM     74  O   UNK A   1      36.142  40.919  79.977  0.00  0.00    +0.000 OA
ENDBRANCH  71  72
ENDBRANCH  70  71
ENDBRANCH  67  70
ENDBRANCH  65  67
ENDBRANCH  62  63
BRANCH  62  75
ATOM     75  C   UNK A   2      32.326  33.862  78.024  0.00  0.00    +0.000 C 
ATOM     76  O   UNK A   2      31.859  33.525  76.942  0.00  0.00    +0.000 OA
ENDBRANCH  62  75
ENDBRANCH  61  62
ENDBRANCH  58  61
ENDBRANCH  24  56
BRANCH  10  77
ATOM     77  C   UNK A   3      24.739  47.424  78.377  0.00  0.00    +0.000 C 
ATOM     78  O   UNK A   3      23.695  46.893  78.766  0.00  0.00    +0.000 OA
ATOM     79  N   PRO A   4      24.958  48.735  78.385  0.00  0.00    +0.000 N 
ATOM     80  H   PRO A   4      25.880  49.078  78.049  0.00  0.00    +0.000 HD
BRANCH  79  81
ATOM     81  CA  PRO A   4      23.982  49.722  78.837  0.00  0.00    +0.000 C 
BRANCH  81  82
ATOM     82  C   PRO A   4      23.272  50.445  77.699  0.00  0.00    +0.000 C 
ATOM     83  O   PRO A   4      22.272  51.145  77.943  0.00  0.00    +0.000 OA
ATOM     84  N   HIS A   5      23.771  50.262  76.468  0.00  0.00    +0.000 N 
ATOM     85  H   HIS A   5      24.569  49.607  76.340  0.00  0.00    +0.000 HD
BRANCH  84  86
ATOM     86  CA  HIS A   5      23.228  50.954  75.302  0.00  0.00    +0.000 C 
BRANCH  86  87
ATOM     87  C   HIS A   5      23.287  52.462  75.477  0.00  0.00    +0.000 C 
ATOM     88  O   HIS A   5      24.262  52.974  76.021  0.00  0.00    +0.000 OA
ENDBRANCH  86  87
BRANCH  86  89
ATOM     89  CB  HIS A   5      21.814  50.463  74.985  0.00  0.00    +0.000 C 
BRANCH  89  90
ATOM     90  CG  HIS A   5      21.710  48.973  75.005  0.00  0.00    +0.000 C 
BRANCH  90  91
ATOM     91  CD  HIS A   5      22.623  48.289  74.035  0.00  0.00    +0.000 C 
BRANCH  91  92
ATOM     92  NE  HIS A   5      22.208  46.894  73.876  0.00  0.00    +0.330 N 
ATOM     93  HE  HIS A   5      21.236  46.651  74.155  0.00  0.00    +0.000 HD
ATOM     94  CZ  HIS A   5      22.970  45.911  73.405  0.00  0.00    +0.000 C 
ATOM     95  NH2 HIS A   5      22.467  44.688  73.322  0.00  0.00    +0.330 N 
ATOM     96 HH21 HIS A   5      21.488  44.507  73.623  0.00  0.00    +0.000 HD
ATOM     97 HH22 HIS A   5      23.051  43.909  72.956  0.00  0.00    +0.000 HD
ATOM     98  NH1 HIS A   5      24.227  46.128  73.026  0.00  0.00    +0.330 N 
ATOM     99 HH11 HIS A   5      24.633  47.083  73.095  0.00  0.00    +0.000 HD
ATOM    100 HH12 HIS A   5      24.803  45.343  72.661  0.00  0.00    +0.000 HD
ENDBRANCH  91  92
ENDBRANCH  90  91
ENDBRANCH  89  90
ENDBRANCH  86  89
ENDBRANCH  84  86
ENDBRANCH  81  82
BRANCH  81 101
ATOM    101  CB  PRO A   4      24.673  50.759  79.733  0.00  0.00    +0.000 C 
BRANCH 101 102
ATOM    102  CG  PRO A   4      25.094  50.210  81.105  0.00  0.00    +0.000 C 
ATOM    103  CD2 PRO A   4      25.849  51.251  81.930  0.00  0.00    +0.000 C 
ATOM    104  CD1 PRO A   4      23.847  49.695  81.868  0.00  0.00    +0.000 C 
ENDBRANCH 101 102
ENDBRANCH  81 101
ENDBRANCH  79  81
ENDBRANCH  10  77
BRANCH   1 105
ATOM    105  N   UNK A   1      31.118  42.800  83.015  0.00  0.00    +0.000 NA
ATOM    106  H   UNK A   1      30.346  42.714  83.706  0.00  0.00    +0.000 HD
ENDBRANCH   1 105
BRANCH  22 107
ATOM    107  N   UNK A   1      33.060  42.870  74.645  0.00  0.00    +0.000 NA
ATOM    108  H   UNK A   1      32.921  43.876  74.870  0.00  0.00    +0.000 HD
BRANCH 107 109
ATOM    109  C   UNK A   1      34.418  42.342  74.554  0.00  0.00    +0.000 C 
BRANCH 109 110
ATOM    110  C   UNK A   1      35.467  43.425  74.864  0.00  0.00    +0.000 C 
BRANCH 110 111
ATOM    111  C   UNK A   1      35.274  44.699  74.063  0.00  0.00    +0.000 C 
BRANCH 111 112
ATOM    112  C   UNK A   1      36.211  45.776  74.534  0.00  0.00    +0.000 C 
BRANCH 112 113
ATOM    113  C   UNK A   1      37.722  45.492  74.334  0.00  0.00    +0.000 C 
BRANCH 113 114
ATOM    114  C   UNK A   1      38.039  45.184  72.865  0.00  0.00    +0.000 C 
ATOM    115  O   UNK A   1      37.949  46.055  71.997  0.00  0.00    +0.000 OA
ENDBRANCH 113 114
BRANCH 113 116
ATOM    116  N   UNK A   1      38.507  46.657  74.746  0.00  0.00    +0.000 NA
ATOM    117  H   UNK A   1      38.317  47.570  74.286  0.00  0.00    +0.000 HD
ENDBRANCH 113 116
ENDBRANCH 112 113
ENDBRANCH 111 112
ENDBRANCH 110 111
ENDBRANCH 109 110
ENDBRANCH 107 109
ENDBRANCH  22 107
BRANCH  15 118
ATOM    118  O   UNK A   1      27.747  40.785  76.829  0.00  0.00    +0.000 OA
BRANCH 118 119
ATOM    119  C   UNK A   1      27.500  39.576  77.120  0.00  0.00    +0.000 C 
ATOM    120  O   UNK A   1      27.363  38.688  76.257  0.00  0.00    +0.000 OA
BRANCH 119 121
ATOM    121  C   UNK A   1      27.376  39.151  78.591  0.00  0.00    +0.000 C 
BRANCH 121 122
ATOM    122  C   UNK A   1      26.901  40.285  79.503  0.00  0.00    +0.000 C 
BRANCH 122 123
ATOM    123  C   UNK A   1      25.399  40.606  79.284  0.00  0.00    +0.000 C 
ATOM    124  N   UNK A   2      24.825  41.386  80.198  0.00  0.00    +0.000 N 
ATOM    125  H   UNK A   2      25.357  41.665  81.047  0.00  0.00    +0.000 HD
ATOM    126  O   UNK A   1      24.782  40.168  78.297  0.00  0.00    +0.000 OA
BRANCH 124 127
ATOM    127  C   UNK A   2      23.459  41.850  80.015  0.00  0.00    +0.000 C 
BRANCH 127 128
ATOM    128  C   UNK A   2      23.469  42.717  78.796  0.00  0.00    +0.000 C 
ATOM    129  O   UNK A   2      24.249  43.654  78.710  0.00  0.00    +0.000 OA
ATOM    130  N   UNK A   3      22.564  42.404  77.866  0.00  0.00    +0.000 N 
ATOM    131  H   UNK A   3      21.749  41.819  78.141  0.00  0.00    +0.000 HD
BRANCH 130 132
ATOM    132  C   UNK A   3      22.670  42.850  76.473  0.00  0.00    +0.000 C 
ATOM    133  C   UNK A   3      23.501  41.824  75.640  0.00  0.00    +0.000 C 
BRANCH 132 134
ATOM    134  C   UNK A   3      21.274  42.962  75.922  0.00  0.00    +0.000 C 
ATOM    135  N   PRO A   4      20.581  44.040  76.288  0.00  0.00    +0.000 N 
ATOM    136  CD  PRO A   4      21.159  45.173  77.038  0.00  0.00    +0.000 C 
ATOM    137  CG  PRO A   4      20.023  46.143  77.181  0.00  0.00    +0.000 C 
ATOM    138  CB  PRO A   4      18.744  45.364  76.941  0.00  0.00    +0.000 C 
ATOM    139  CA  PRO A   4      19.149  44.206  76.014  0.00  0.00    +0.000 C 
ATOM    140  O   UNK A   3      20.813  42.069  75.213  0.00  0.00    +0.000 OA
BRANCH 139 141
ATOM    141  C   PRO A   4      18.816  44.571  74.560  0.00  0.00    +0.000 C 
ATOM    142  N   HIS A   5      17.784  43.928  74.024  0.00  0.00    +0.000 N 
ATOM    143  H   HIS A   5      17.398  43.104  74.527  0.00  0.00    +0.000 HD
ATOM    144  O   PRO A   4      19.482  45.420  73.950  0.00  0.00    +0.000 OA
BRANCH 142 145
ATOM    145  CA  HIS A   5      17.163  44.327  72.754  0.00  0.00    +0.000 C 
BRANCH 145 146
ATOM    146  C   HIS A   5      15.641  44.392  72.926  0.00  0.00    +0.000 C 
ATOM    147  O   HIS A   5      15.054  43.571  73.626  0.00  0.00    +0.000 OA
ENDBRANCH 145 146
BRANCH 145 148
ATOM    148  CB  HIS A   5      17.530  43.353  71.617  0.00  0.00    +0.000 C 
BRANCH 148 149
ATOM    149  CG  HIS A   5      19.012  43.264  71.346  0.00  0.00    +0.000 A 
ATOM    150  CD2 HIS A   5      19.962  42.442  71.853  0.00  0.00    +0.000 A 
ATOM    151  NE2 HIS A   5      21.160  42.794  71.278  0.00  0.00    +0.000 NA
ATOM    152  CE1 HIS A   5      20.955  43.804  70.453  0.00  0.00    +0.000 A 
ATOM    153  ND1 HIS A   5      19.666  44.103  70.465  0.00  0.00    +0.000 NA
ENDBRANCH 148 149
ENDBRANCH 145 148
ENDBRANCH 142 145
ENDBRANCH 139 141
ENDBRANCH 132 134
ENDBRANCH 130 132
ENDBRANCH 127 128
BRANCH 127 154
ATOM    154  C   UNK A   2      22.909  42.638  81.207  0.00  0.00    +0.000 C 
BRANCH 154 155
ATOM    155  O   UNK A   2      21.518  42.937  80.996  0.00  0.00    +0.000 OA
ATOM    156  H   UNK A   2      21.419  43.478  80.173  0.00  0.00    +0.000 HD
ENDBRANCH 154 155
ENDBRANCH 127 154
ENDBRANCH 124 127
ENDBRANCH 122 123
BRANCH 122 157
ATOM    157  N   UNK A   1      27.182  39.991  80.904  0.00  0.00    +0.000 NA
ATOM    158  H   UNK A   1      27.983  40.466  81.367  0.00  0.00    +0.000 HD
ENDBRANCH 122 157
ENDBRANCH 121 122
ENDBRANCH 119 121
ENDBRANCH 118 119
ENDBRANCH  15 118
BRANCH   5 159
ATOM    159  C   UNK A   2      27.538  45.798  82.068  0.00  0.00    +0.000 C 
BRANCH 159 160
ATOM    160  C   UNK A   2      26.171  46.478  82.185  0.00  0.00    +0.000 C 
ATOM    161  C   UNK A   2      26.162  47.299  83.417  0.00  0.00    +0.000 C 
ATOM    162  C   UNK A   2      25.065  45.434  82.180  0.00  0.00    +0.000 C 
ENDBRANCH 159 160
ENDBRANCH   5 159
TORSDOF 61
REMARK  Name = ../refined-set-2016/2eg8/2eg8_pocket.pdb
REMARK  137 active torsions:
REMARK  status: ('A' for Active; 'I' for Inactive)
REMARK    1  A    between atoms: _1  and  _3
REMARK    2  A    between atoms: _14  and  _17
REMARK    3  A    between atoms: _17  and  _18
REMARK    4  A    between atoms: _23  and  _24
REMARK    5  A    between atoms: _32  and  _34
REMARK    6  A    between atoms: _34  and  _35
REMARK    7  A    between atoms: _34  and  _37
REMARK    8  A    between atoms: _37  and  _38
REMARK    9  A    between atoms: _41  and  _43
REMARK   10  A    between atoms: _43  and  _44
REMARK   11  A    between atoms: _43  and  _46
REMARK   12  A    between atoms: _46  and  _47
REMARK   13  A    between atoms: _47  and  _48
REMARK   14  A    between atoms: _48  and  _49
REMARK   15  A    between atoms: _58  and  _60
REMARK   16  A    between atoms: _60  and  _61
REMARK   17  A    between atoms: _60  and  _63
REMARK   18  A    between atoms: _63  and  _64
REMARK   19  A    between atoms: _64  and  _65
REMARK   20  A    between atoms: _68  and  _69
REMARK   21  A    between atoms: _74  and  _76
REMARK   22  A    between atoms: _76  and  _77
REMARK   23  A    between atoms: _76  and  _79
REMARK   24  A    between atoms: _79  and  _80
REMARK   25  A    between atoms: _85  and  _87
REMARK   26  A    between atoms: _87  and  _88
REMARK   27  A    between atoms: _87  and  _90
REMARK   28  A    between atoms: _90  and  _91
REMARK   29  A    between atoms: _94  and  _96
REMARK   30  A    between atoms: _96  and  _97
REMARK   31  A    between atoms: _96  and  _99
REMARK   32  A    between atoms: _99  and  _100
REMARK   33  A    between atoms: _105  and  _106
REMARK   34  A    between atoms: _108  and  _110
REMARK   35  A    between atoms: _110  and  _111
REMARK   36  A    between atoms: _110  and  _117
REMARK   37  A    between atoms: _111  and  _112
REMARK   38  A    between atoms: _112  and  _113
REMARK   39  A    between atoms: _113  and  _114
REMARK   40  A    between atoms: _114  and  _115
REMARK   41  A    between atoms: _115  and  _119
REMARK   42  A    between atoms: _122  and  _124
REMARK   43  A    between atoms: _124  and  _125
REMARK   44  A    between atoms: _124  and  _127
REMARK   45  A    between atoms: _127  and  _128
REMARK   46  A    between atoms: _133  and  _134
REMARK   47  A    between atoms: _137  and  _138
REMARK   48  A    between atoms: _143  and  _145
REMARK   49  A    between atoms: _145  and  _146
REMARK   50  A    between atoms: _145  and  _148
REMARK   51  A    between atoms: _148  and  _149
REMARK   52  A    between atoms: _150  and  ZN_356
REMARK   53  A    between atoms: _154  and  _156
REMARK   54  A    between atoms: _156  and  _157
REMARK   55  A    between atoms: _159  and  _161
REMARK   56  A    between atoms: _161  and  _162
REMARK   57  A    between atoms: _161  and  _164
REMARK   58  A    between atoms: _164  and  _165
REMARK   59  A    between atoms: _165  and  _166
REMARK   60  A    between atoms: _169  and  _171
REMARK   61  A    between atoms: _171  and  _172
REMARK   62  A    between atoms: _171  and  _174
REMARK   63  A    between atoms: _174  and  _175
REMARK   64  A    between atoms: _175  and  _176
REMARK   65  A    between atoms: _179  and  _181
REMARK   66  A    between atoms: _181  and  _182
REMARK   67  A    between atoms: _181  and  _184
REMARK   68  A    between atoms: _184  and  _185
REMARK   69  A    between atoms: _189  and  ZN_356
REMARK   70  A    between atoms: _190  and  _192
REMARK   71  A    between atoms: _192  and  _193
REMARK   72  A    between atoms: _192  and  _195
REMARK   73  A    between atoms: _195  and  _196
REMARK   74  A    between atoms: _199  and  _201
REMARK   75  A    between atoms: _201  and  _202
REMARK   76  A    between atoms: _201  and  _204
REMARK   77  A    between atoms: _204  and  _205
REMARK   78  A    between atoms: _205  and  _206
REMARK   79  A    between atoms: _211  and  _213
REMARK   80  A    between atoms: _213  and  _214
REMARK   81  A    between atoms: _213  and  _216
REMARK   82  A    between atoms: _216  and  _217
REMARK   83  A    between atoms: _222  and  _224
REMARK   84  A    between atoms: _224  and  _225
REMARK   85  A    between atoms: _224  and  _227
REMARK   86  A    between atoms: _227  and  _228
REMARK   87  A    between atoms: _231  and  _233
REMARK   88  A    between atoms: _233  and  _234
REMARK   89  A    between atoms: _233  and  _236
REMARK   90  A    between atoms: _236  and  _237
REMARK   91  A    between atoms: _242  and  _243
REMARK   92  A    between atoms: _245  and  _247
REMARK   93  A    between atoms: _247  and  _248
REMARK   94  A    between atoms: _247  and  _250
REMARK   95  A    between atoms: _252  and  _254
REMARK   96  A    between atoms: _254  and  _255
REMARK   97  A    between atoms: _254  and  _257
REMARK   98  A    between atoms: _257  and  _258
REMARK   99  A    between atoms: _262  and  _263
REMARK  100  A    between atoms: _268  and  _270
REMARK  101  A    between atoms: _270  and  _271
REMARK  102  A    between atoms: _270  and  _273
REMARK  103  A    between atoms: _273  and  _274
REMARK  104  A    between atoms: _277  and  _279
REMARK  105  A    between atoms: _279  and  _280
REMARK  106  A    between atoms: _279  and  _282
REMARK  107  A    between atoms: _282  and  _283
REMARK  108  A    between atoms: _283  and  _284
REMARK  109  A    between atoms: _284  and  ZN_357
REMARK  110  A    between atoms: _286  and  _288
REMARK  111  A    between atoms: _288  and  _289
REMARK  112  A    between atoms: _288  and  _291
REMARK  113  A    between atoms: _291  and  _292
REMARK  114  A    between atoms: _294  and  _296
REMARK  115  A    between atoms: _296  and  _297
REMARK  116  A    between atoms: _301  and  _302
REMARK  117  A    between atoms: _307  and  _309
REMARK  118  A    between atoms: _309  and  _310
REMARK  119  A    between atoms: _309  and  _312
REMARK  120  A    between atoms: _312  and  _313
REMARK  121  A    between atoms: _318  and  _320
REMARK  122  A    between atoms: _320  and  _321
REMARK  123  A    between atoms: _320  and  _323
REMARK  124  A    between atoms: _323  and  _324
REMARK  125  A    between atoms: _324  and  _325
REMARK  126  A    between atoms: _325  and  _326
REMARK  127  A    between atoms: _326  and  _327
REMARK  128  A    between atoms: _331  and  _333
REMARK  129  A    between atoms: _333  and  _334
REMARK  130  A    between atoms: _333  and  _336
REMARK  131  A    between atoms: _338  and  _340
REMARK  132  A    between atoms: _340  and  _341
REMARK  133  A    between atoms: _344  and  _346
REMARK  134  A    between atoms: _346  and  _347
REMARK  135  A    between atoms: _349  and  _351
REMARK  136  A    between atoms: _351  and  _352
REMARK  137  A    between atoms: _351  and  _354
REMARK                            x       y       z     vdW  Elec       q    Type
REMARK                         _______ _______ _______ _____ _____    ______ ____
ROOT
ATOM      1  C   PRO A   2      31.181  50.005  72.736  0.00  0.00    +0.241 C 
ATOM      2  N   ASN A   3      30.381  48.964  72.541  0.00  0.00    -0.297 N 
ATOM      3  H   ASN A   3      30.166  48.329  73.336  0.00  0.00    +0.150 HD
ATOM      4  O   PRO A   2      31.343  50.889  71.913  0.00  0.00    -0.273 OA
ENDROOT
BRANCH   1  11
ATOM      5  C   MET A   1      30.976  48.894  75.932  0.00  0.00    +0.242 C 
ATOM      6  O   MET A   1      30.093  49.733  76.109  0.00  0.00    -0.273 OA
ATOM      7  N   PRO A   2      31.790  48.901  74.884  0.00  0.00    -0.272 N 
ATOM      8  CD  PRO A   2      32.868  47.926  74.664  0.00  0.00    +0.094 C 
ATOM      9  CG  PRO A   2      33.842  48.670  73.833  0.00  0.00    +0.024 C 
ATOM     10  CB  PRO A   2      33.442  50.087  73.759  0.00  0.00    +0.031 C 
ATOM     11  CA  PRO A   2      31.949  50.080  74.043  0.00  0.00    +0.152 C 
BRANCH   5  12
ATOM     12  CA  MET A   1      31.156  47.766  76.955  0.00  0.00    +0.146 C 
BRANCH  12  13
ATOM     13  N   MET A   1      30.565  48.128  78.237  0.00  0.00    -0.238 NA
ATOM     14  H   MET A   1      29.694  47.655  78.553  0.00  0.00    +0.142 HD
ENDBRANCH  12  13
BRANCH  12  15
ATOM     15  CB  MET A   1      30.601  46.443  76.491  0.00  0.00    +0.038 C 
BRANCH  15  16
ATOM     16  CG  MET A   1      31.123  45.290  77.331  0.00  0.00    +0.060 C 
BRANCH  16  17
ATOM     17  SD  MET A   1      32.926  45.270  77.293  0.00  0.00    -0.139 S 
ATOM     18  CE  MET A   1      33.301  43.744  78.172  0.00  0.00    +0.069 C 
ENDBRANCH  16  17
ENDBRANCH  15  16
ENDBRANCH  12  15
ENDBRANCH   5  12
ENDBRANCH   1  11
BRANCH   2  19
ATOM     19  CA  ASN A   3      29.793  48.692  71.221  0.00  0.00    +0.158 C 
BRANCH  19  20
ATOM     20  C   ASN A   3      28.560  49.504  70.909  0.00  0.00    +0.241 C 
ATOM     21  N   LEU A   4      28.674  50.817  71.048  0.00  0.00    -0.298 N 
ATOM     22  H   LEU A   4      29.504  51.220  71.528  0.00  0.00    +0.150 HD
ATOM     23  O   ASN A   3      27.554  48.970  70.469  0.00  0.00    -0.273 OA
BRANCH  21  24
ATOM     24  CA  LEU A   4      27.634  51.695  70.527  0.00  0.00    +0.137 C 
BRANCH  24  25
ATOM     25  C   LEU A   4      27.762  51.851  69.011  0.00  0.00    +0.227 C 
ATOM     26  O   LEU A   4      28.728  51.363  68.404  0.00  0.00    -0.286 OA
ENDBRANCH  24  25
BRANCH  24  27
ATOM     27  CB  LEU A   4      27.686  53.071  71.209  0.00  0.00    +0.028 C 
BRANCH  27  28
ATOM     28  CG  LEU A   4      27.711  53.084  72.737  0.00  0.00    +0.002 C 
ATOM     29  CD2 LEU A   4      26.614  52.212  73.323  0.00  0.00    +0.000 C 
ATOM     30  CD1 LEU A   4      27.624  54.552  73.272  0.00  0.00    +0.000 C 
ENDBRANCH  27  28
ENDBRANCH  24  27
ENDBRANCH  21  24
ENDBRANCH  19  20
BRANCH  19  31
ATOM     31  CB  ASN A   3      29.530  47.201  70.985  0.00  0.00    +0.114 C 
BRANCH  31  32
ATOM     32  CG  ASN A   3      28.562  46.610  71.978  0.00  0.00    +0.222 C 
ATOM     33  OD1 ASN A   3      28.392  47.135  73.081  0.00  0.00    -0.275 OA
ATOM     34  ND2 ASN A   3      27.947  45.488  71.612  0.00  0.00    -0.329 N 
ATOM     35 HD21 ASN A   3      27.291  45.017  72.267  0.00  0.00    +0.145 HD
ATOM     36 HD22 ASN A   3      28.122  45.082  70.671  0.00  0.00    +0.145 HD
ENDBRANCH  31  32
ENDBRANCH  19  31
ENDBRANCH   2  19
TORSDOF 14
REMARK  Name = ../refined-set-2016/2eg8/2eg8_pocket.pdb
REMARK  137 active torsions:
REMARK  status: ('A' for Active; 'I' for Inactive)
REMARK    1  A    between atoms: _1  and  _3
REMARK    2  A    between atoms: _14  and  _17
REMARK    3  A    between atoms: _17  and  _18
REMARK    4  A    between atoms: _23  and  _24
REMARK    5  A    between atoms: _32  and  _34
REMARK    6  A    between atoms: _34  and  _35
REMARK    7  A    between atoms: _34  and  _37
REMARK    8  A    between atoms: _37  and  _38
REMARK    9  A    between atoms: _41  and  _43
REMARK   10  A    between atoms: _43  and  _44
REMARK   11  A    between atoms: _43  and  _46
REMARK   12  A    between atoms: _46  and  _47
REMARK   13  A    between atoms: _47  and  _48
REMARK   14  A    between atoms: _48  and  _49
REMARK   15  A    between atoms: _58  and  _60
REMARK   16  A    between atoms: _60  and  _61
REMARK   17  A    between atoms: _60  and  _63
REMARK   18  A    between atoms: _63  and  _64
REMARK   19  A    between atoms: _64  and  _65
REMARK   20  A    between atoms: _68  and  _69
REMARK   21  A    between atoms: _74  and  _76
REMARK   22  A    between atoms: _76  and  _77
REMARK   23  A    between atoms: _76  and  _79
REMARK   24  A    between atoms: _79  and  _80
REMARK   25  A    between atoms: _85  and  _87
REMARK   26  A    between atoms: _87  and  _88
REMARK   27  A    between atoms: _87  and  _90
REMARK   28  A    between atoms: _90  and  _91
REMARK   29  A    between atoms: _94  and  _96
REMARK   30  A    between atoms: _96  and  _97
REMARK   31  A    between atoms: _96  and  _99
REMARK   32  A    between atoms: _99  and  _100
REMARK   33  A    between atoms: _105  and  _106
REMARK   34  A    between atoms: _108  and  _110
REMARK   35  A    between atoms: _110  and  _111
REMARK   36  A    between atoms: _110  and  _117
REMARK   37  A    between atoms: _111  and  _112
REMARK   38  A    between atoms: _112  and  _113
REMARK   39  A    between atoms: _113  and  _114
REMARK   40  A    between atoms: _114  and  _115
REMARK   41  A    between atoms: _115  and  _119
REMARK   42  A    between atoms: _122  and  _124
REMARK   43  A    between atoms: _124  and  _125
REMARK   44  A    between atoms: _124  and  _127
REMARK   45  A    between atoms: _127  and  _128
REMARK   46  A    between atoms: _133  and  _134
REMARK   47  A    between atoms: _137  and  _138
REMARK   48  A    between atoms: _143  and  _145
REMARK   49  A    between atoms: _145  and  _146
REMARK   50  A    between atoms: _145  and  _148
REMARK   51  A    between atoms: _148  and  _149
REMARK   52  A    between atoms: _150  and  ZN_356
REMARK   53  A    between atoms: _154  and  _156
REMARK   54  A    between atoms: _156  and  _157
REMARK   55  A    between atoms: _159  and  _161
REMARK   56  A    between atoms: _161  and  _162
REMARK   57  A    between atoms: _161  and  _164
REMARK   58  A    between atoms: _164  and  _165
REMARK   59  A    between atoms: _165  and  _166
REMARK   60  A    between atoms: _169  and  _171
REMARK   61  A    between atoms: _171  and  _172
REMARK   62  A    between atoms: _171  and  _174
REMARK   63  A    between atoms: _174  and  _175
REMARK   64  A    between atoms: _175  and  _176
REMARK   65  A    between atoms: _179  and  _181
REMARK   66  A    between atoms: _181  and  _182
REMARK   67  A    between atoms: _181  and  _184
REMARK   68  A    between atoms: _184  and  _185
REMARK   69  A    between atoms: _189  and  ZN_356
REMARK   70  A    between atoms: _190  and  _192
REMARK   71  A    between atoms: _192  and  _193
REMARK   72  A    between atoms: _192  and  _195
REMARK   73  A    between atoms: _195  and  _196
REMARK   74  A    between atoms: _199  and  _201
REMARK   75  A    between atoms: _201  and  _202
REMARK   76  A    between atoms: _201  and  _204
REMARK   77  A    between atoms: _204  and  _205
REMARK   78  A    between atoms: _205  and  _206
REMARK   79  A    between atoms: _211  and  _213
REMARK   80  A    between atoms: _213  and  _214
REMARK   81  A    between atoms: _213  and  _216
REMARK   82  A    between atoms: _216  and  _217
REMARK   83  A    between atoms: _222  and  _224
REMARK   84  A    between atoms: _224  and  _225
REMARK   85  A    between atoms: _224  and  _227
REMARK   86  A    between atoms: _227  and  _228
REMARK   87  A    between atoms: _231  and  _233
REMARK   88  A    between atoms: _233  and  _234
REMARK   89  A    between atoms: _233  and  _236
REMARK   90  A    between atoms: _236  and  _237
REMARK   91  A    between atoms: _242  and  _243
REMARK   92  A    between atoms: _245  and  _247
REMARK   93  A    between atoms: _247  and  _248
REMARK   94  A    between atoms: _247  and  _250
REMARK   95  A    between atoms: _252  and  _254
REMARK   96  A    between atoms: _254  and  _255
REMARK   97  A    between atoms: _254  and  _257
REMARK   98  A    between atoms: _257  and  _258
REMARK   99  A    between atoms: _262  and  _263
REMARK  100  A    between atoms: _268  and  _270
REMARK  101  A    between atoms: _270  and  _271
REMARK  102  A    between atoms: _270  and  _273
REMARK  103  A    between atoms: _273  and  _274
REMARK  104  A    between atoms: _277  and  _279
REMARK  105  A    between atoms: _279  and  _280
REMARK  106  A    between atoms: _279  and  _282
REMARK  107  A    between atoms: _282  and  _283
REMARK  108  A    between atoms: _283  and  _284
REMARK  109  A    between atoms: _284  and  ZN_357
REMARK  110  A    between atoms: _286  and  _288
REMARK  111  A    between atoms: _288  and  _289
REMARK  112  A    between atoms: _288  and  _291
REMARK  113  A    between atoms: _291  and  _292
REMARK  114  A    between atoms: _294  and  _296
REMARK  115  A    between atoms: _296  and  _297
REMARK  116  A    between atoms: _301  and  _302
REMARK  117  A    between atoms: _307  and  _309
REMARK  118  A    between atoms: _309  and  _310
REMARK  119  A    between atoms: _309  and  _312
REMARK  120  A    between atoms: _312  and  _313
REMARK  121  A    between atoms: _318  and  _320
REMARK  122  A    between atoms: _320  and  _321
REMARK  123  A    between atoms: _320  and  _323
REMARK  124  A    between atoms: _323  and  _324
REMARK  125  A    between atoms: _324  and  _325
REMARK  126  A    between atoms: _325  and  _326
REMARK  127  A    between atoms: _326  and  _327
REMARK  128  A    between atoms: _331  and  _333
REMARK  129  A    between atoms: _333  and  _334
REMARK  130  A    between atoms: _333  and  _336
REMARK  131  A    between atoms: _338  and  _340
REMARK  132  A    between atoms: _340  and  _341
REMARK  133  A    between atoms: _344  and  _346
REMARK  134  A    between atoms: _346  and  _347
REMARK  135  A    between atoms: _349  and  _351
REMARK  136  A    between atoms: _351  and  _352
REMARK  137  A    between atoms: _351  and  _354
REMARK                            x       y       z     vdW  Elec       q    Type
REMARK                         _______ _______ _______ _____ _____    ______ ____
ROOT
ATOM      1  CG  TYR A   1      34.671  49.043  69.621  0.00  0.00    -0.020 A 
ATOM      2  CD2 TYR A   1      33.335  48.666  69.748  0.00  0.00    -0.001 A 
ATOM      3  CE2 TYR A   1      32.765  47.678  68.903  0.00  0.00    +0.036 A 
ATOM      4  CZ  TYR A   1      33.541  47.102  67.908  0.00  0.00    +0.134 A 
ATOM      5  CE1 TYR A   1      34.867  47.474  67.760  0.00  0.00    +0.036 A 
ATOM      6  CD1 TYR A   1      35.420  48.447  68.611  0.00  0.00    -0.001 A 
ENDROOT
BRANCH   4   7
ATOM      7  OH  TYR A   1      33.003  46.170  67.051  0.00  0.00    -0.506 OA
ATOM      8  HH  TYR A   1      32.054  46.015  67.287  0.00  0.00    +0.292 HD
ENDBRANCH   4   7
BRANCH   1   9
ATOM      9  CB  TYR A   1      35.278  50.109  70.533  0.00  0.00    +0.051 C 
BRANCH   9  10
ATOM     10  CA  TYR A   1      36.505  49.684  71.363  0.00  0.00    +0.137 C 
BRANCH  10  11
ATOM     11  N   TYR A   1      36.639  50.571  72.509  0.00  0.00    -0.239 NA
ATOM     12  H   TYR A   1      36.035  51.417  72.535  0.00  0.00    +0.142 HD
ENDBRANCH  10  11
BRANCH  10  13
ATOM     13  C   TYR A   1      37.767  49.794  70.504  0.00  0.00    +0.224 C 
ATOM     14  O   TYR A   1      38.058  50.849  69.917  0.00  0.00    -0.287 OA
ENDBRANCH  10  13
ENDBRANCH   9  10
ENDBRANCH   1   9
TORSDOF 5
REMARK  Name = ../refined-set-2016/2eg8/2eg8_pocket.pdb
REMARK  137 active torsions:
REMARK  status: ('A' for Active; 'I' for Inactive)
REMARK    1  A    between atoms: _1  and  _3
REMARK    2  A    between atoms: _14  and  _17
REMARK    3  A    between atoms: _17  and  _18
REMARK    4  A    between atoms: _23  and  _24
REMARK    5  A    between atoms: _32  and  _34
REMARK    6  A    between atoms: _34  and  _35
REMARK    7  A    between atoms: _34  and  _37
REMARK    8  A    between atoms: _37  and  _38
REMARK    9  A    between atoms: _41  and  _43
REMARK   10  A    between atoms: _43  and  _44
REMARK   11  A    between atoms: _43  and  _46
REMARK   12  A    between atoms: _46  and  _47
REMARK   13  A    between atoms: _47  and  _48
REMARK   14  A    between atoms: _48  and  _49
REMARK   15  A    between atoms: _58  and  _60
REMARK   16  A    between atoms: _60  and  _61
REMARK   17  A    between atoms: _60  and  _63
REMARK   18  A    between atoms: _63  and  _64
REMARK   19  A    between atoms: _64  and  _65
REMARK   20  A    between atoms: _68  and  _69
REMARK   21  A    between atoms: _74  and  _76
REMARK   22  A    between atoms: _76  and  _77
REMARK   23  A    between atoms: _76  and  _79
REMARK   24  A    between atoms: _79  and  _80
REMARK   25  A    between atoms: _85  and  _87
REMARK   26  A    between atoms: _87  and  _88
REMARK   27  A    between atoms: _87  and  _90
REMARK   28  A    between atoms: _90  and  _91
REMARK   29  A    between atoms: _94  and  _96
REMARK   30  A    between atoms: _96  and  _97
REMARK   31  A    between atoms: _96  and  _99
REMARK   32  A    between atoms: _99  and  _100
REMARK   33  A    between atoms: _105  and  _106
REMARK   34  A    between atoms: _108  and  _110
REMARK   35  A    between atoms: _110  and  _111
REMARK   36  A    between atoms: _110  and  _117
REMARK   37  A    between atoms: _111  and  _112
REMARK   38  A    between atoms: _112  and  _113
REMARK   39  A    between atoms: _113  and  _114
REMARK   40  A    between atoms: _114  and  _115
REMARK   41  A    between atoms: _115  and  _119
REMARK   42  A    between atoms: _122  and  _124
REMARK   43  A    between atoms: _124  and  _125
REMARK   44  A    between atoms: _124  and  _127
REMARK   45  A    between atoms: _127  and  _128
REMARK   46  A    between atoms: _133  and  _134
REMARK   47  A    between atoms: _137  and  _138
REMARK   48  A    between atoms: _143  and  _145
REMARK   49  A    between atoms: _145  and  _146
REMARK   50  A    between atoms: _145  and  _148
REMARK   51  A    between atoms: _148  and  _149
REMARK   52  A    between atoms: _150  and  ZN_356
REMARK   53  A    between atoms: _154  and  _156
REMARK   54  A    between atoms: _156  and  _157
REMARK   55  A    between atoms: _159  and  _161
REMARK   56  A    between atoms: _161  and  _162
REMARK   57  A    between atoms: _161  and  _164
REMARK   58  A    between atoms: _164  and  _165
REMARK   59  A    between atoms: _165  and  _166
REMARK   60  A    between atoms: _169  and  _171
REMARK   61  A    between atoms: _171  and  _172
REMARK   62  A    between atoms: _171  and  _174
REMARK   63  A    between atoms: _174  and  _175
REMARK   64  A    between atoms: _175  and  _176
REMARK   65  A    between atoms: _179  and  _181
REMARK   66  A    between atoms: _181  and  _182
REMARK   67  A    between atoms: _181  and  _184
REMARK   68  A    between atoms: _184  and  _185
REMARK   69  A    between atoms: _189  and  ZN_356
REMARK   70  A    between atoms: _190  and  _192
REMARK   71  A    between atoms: _192  and  _193
REMARK   72  A    between atoms: _192  and  _195
REMARK   73  A    between atoms: _195  and  _196
REMARK   74  A    between atoms: _199  and  _201
REMARK   75  A    between atoms: _201  and  _202
REMARK   76  A    between atoms: _201  and  _204
REMARK   77  A    between atoms: _204  and  _205
REMARK   78  A    between atoms: _205  and  _206
REMARK   79  A    between atoms: _211  and  _213
REMARK   80  A    between atoms: _213  and  _214
REMARK   81  A    between atoms: _213  and  _216
REMARK   82  A    between atoms: _216  and  _217
REMARK   83  A    between atoms: _222  and  _224
REMARK   84  A    between atoms: _224  and  _225
REMARK   85  A    between atoms: _224  and  _227
REMARK   86  A    between atoms: _227  and  _228
REMARK   87  A    between atoms: _231  and  _233
REMARK   88  A    between atoms: _233  and  _234
REMARK   89  A    between atoms: _233  and  _236
REMARK   90  A    between atoms: _236  and  _237
REMARK   91  A    between atoms: _242  and  _243
REMARK   92  A    between atoms: _245  and  _247
REMARK   93  A    between atoms: _247  and  _248
REMARK   94  A    between atoms: _247  and  _250
REMARK   95  A    between atoms: _252  and  _254
REMARK   96  A    between atoms: _254  and  _255
REMARK   97  A    between atoms: _254  and  _257
REMARK   98  A    between atoms: _257  and  _258
REMARK   99  A    between atoms: _262  and  _263
REMARK  100  A    between atoms: _268  and  _270
REMARK  101  A    between atoms: _270  and  _271
REMARK  102  A    between atoms: _270  and  _273
REMARK  103  A    between atoms: _273  and  _274
REMARK  104  A    between atoms: _277  and  _279
REMARK  105  A    between atoms: _279  and  _280
REMARK  106  A    between atoms: _279  and  _282
REMARK  107  A    between atoms: _282  and  _283
REMARK  108  A    between atoms: _283  and  _284
REMARK  109  A    between atoms: _284  and  ZN_357
REMARK  110  A    between atoms: _286  and  _288
REMARK  111  A    between atoms: _288  and  _289
REMARK  112  A    between atoms: _288  and  _291
REMARK  113  A    between atoms: _291  and  _292
REMARK  114  A    between atoms: _294  and  _296
REMARK  115  A    between atoms: _296  and  _297
REMARK  116  A    between atoms: _301  and  _302
REMARK  117  A    between atoms: _307  and  _309
REMARK  118  A    between atoms: _309  and  _310
REMARK  119  A    between atoms: _309  and  _312
REMARK  120  A    between atoms: _312  and  _313
REMARK  121  A    between atoms: _318  and  _320
REMARK  122  A    between atoms: _320  and  _321
REMARK  123  A    between atoms: _320  and  _323
REMARK  124  A    between atoms: _323  and  _324
REMARK  125  A    between atoms: _324  and  _325
REMARK  126  A    between atoms: _325  and  _326
REMARK  127  A    between atoms: _326  and  _327
REMARK  128  A    between atoms: _331  and  _333
REMARK  129  A    between atoms: _333  and  _334
REMARK  130  A    between atoms: _333  and  _336
REMARK  131  A    between atoms: _338  and  _340
REMARK  132  A    between atoms: _340  and  _341
REMARK  133  A    between atoms: _344  and  _346
REMARK  134  A    between atoms: _346  and  _347
REMARK  135  A    between atoms: _349  and  _351
REMARK  136  A    between atoms: _351  and  _352
REMARK  137  A    between atoms: _351  and  _354
REMARK                            x       y       z     vdW  Elec       q    Type
REMARK                         _______ _______ _______ _____ _____    ______ ____
ROOT
ATOM      1  CA  TYR A   1      35.784  42.153  69.219  0.00  0.00    +0.149 C 
ENDROOT
BRANCH   1   2
ATOM      2  C   TYR A   1      36.409  41.408  68.062  0.00  0.00    +0.242 C 
ATOM      3  N   PRO A   2      35.815  40.257  67.675  0.00  0.00    -0.273 N 
ATOM      4  CD  PRO A   2      34.603  39.651  68.257  0.00  0.00    +0.094 C 
ATOM      5  CG  PRO A   2      34.521  38.327  67.595  0.00  0.00    +0.024 C 
ATOM      6  CB  PRO A   2      35.188  38.502  66.271  0.00  0.00    +0.030 C 
ATOM      7  CA  PRO A   2      36.352  39.427  66.602  0.00  0.00    +0.140 C 
ATOM      8  O   TYR A   1      37.414  41.873  67.508  0.00  0.00    -0.273 OA
BRANCH   7   9
ATOM      9  C   PRO A   2      36.780  40.204  65.370  0.00  0.00    +0.227 C 
ATOM     10  O   PRO A   2      36.121  41.153  64.975  0.00  0.00    -0.286 OA
ENDBRANCH   7   9
ENDBRANCH   1   2
BRANCH   1  11
ATOM     11  N   TYR A   1      36.783  42.977  69.893  0.00  0.00    -0.238 NA
ATOM     12  H   TYR A   1      36.892  43.968  69.598  0.00  0.00    +0.142 HD
ENDBRANCH   1  11
BRANCH   1  13
ATOM     13  CB  TYR A   1      34.634  43.018  68.729  0.00  0.00    +0.053 C 
BRANCH  13  14
ATOM     14  CG  TYR A   1      33.759  43.469  69.865  0.00  0.00    -0.020 A 
ATOM     15  CD2 TYR A   1      32.817  42.610  70.418  0.00  0.00    -0.001 A 
ATOM     16  CE2 TYR A   1      31.993  43.031  71.466  0.00  0.00    +0.036 A 
ATOM     17  CZ  TYR A   1      32.134  44.319  71.971  0.00  0.00    +0.134 A 
ATOM     18  CE1 TYR A   1      33.072  45.182  71.440  0.00  0.00    +0.036 A 
ATOM     19  CD1 TYR A   1      33.877  44.752  70.394  0.00  0.00    -0.001 A 
BRANCH  17  20
ATOM     20  OH  TYR A   1      31.366  44.744  73.024  0.00  0.00    -0.506 OA
ATOM     21  HH  TYR A   1      31.535  44.165  73.809  0.00  0.00    +0.292 HD
ENDBRANCH  17  20
ENDBRANCH  13  14
ENDBRANCH   1  13
TORSDOF 6
REMARK  Name = ../refined-set-2016/2eg8/2eg8_pocket.pdb
REMARK  137 active torsions:
REMARK  status: ('A' for Active; 'I' for Inactive)
REMARK    1  A    between atoms: _1  and  _3
REMARK    2  A    between atoms: _14  and  _17
REMARK    3  A    between atoms: _17  and  _18
REMARK    4  A    between atoms: _23  and  _24
REMARK    5  A    between atoms: _32  and  _34
REMARK    6  A    between atoms: _34  and  _35
REMARK    7  A    between atoms: _34  and  _37
REMARK    8  A    between atoms: _37  and  _38
REMARK    9  A    between atoms: _41  and  _43
REMARK   10  A    between atoms: _43  and  _44
REMARK   11  A    between atoms: _43  and  _46
REMARK   12  A    between atoms: _46  and  _47
REMARK   13  A    between atoms: _47  and  _48
REMARK   14  A    between atoms: _48  and  _49
REMARK   15  A    between atoms: _58  and  _60
REMARK   16  A    between atoms: _60  and  _61
REMARK   17  A    between atoms: _60  and  _63
REMARK   18  A    between atoms: _63  and  _64
REMARK   19  A    between atoms: _64  and  _65
REMARK   20  A    between atoms: _68  and  _69
REMARK   21  A    between atoms: _74  and  _76
REMARK   22  A    between atoms: _76  and  _77
REMARK   23  A    between atoms: _76  and  _79
REMARK   24  A    between atoms: _79  and  _80
REMARK   25  A    between atoms: _85  and  _87
REMARK   26  A    between atoms: _87  and  _88
REMARK   27  A    between atoms: _87  and  _90
REMARK   28  A    between atoms: _90  and  _91
REMARK   29  A    between atoms: _94  and  _96
REMARK   30  A    between atoms: _96  and  _97
REMARK   31  A    between atoms: _96  and  _99
REMARK   32  A    between atoms: _99  and  _100
REMARK   33  A    between atoms: _105  and  _106
REMARK   34  A    between atoms: _108  and  _110
REMARK   35  A    between atoms: _110  and  _111
REMARK   36  A    between atoms: _110  and  _117
REMARK   37  A    between atoms: _111  and  _112
REMARK   38  A    between atoms: _112  and  _113
REMARK   39  A    between atoms: _113  and  _114
REMARK   40  A    between atoms: _114  and  _115
REMARK   41  A    between atoms: _115  and  _119
REMARK   42  A    between atoms: _122  and  _124
REMARK   43  A    between atoms: _124  and  _125
REMARK   44  A    between atoms: _124  and  _127
REMARK   45  A    between atoms: _127  and  _128
REMARK   46  A    between atoms: _133  and  _134
REMARK   47  A    between atoms: _137  and  _138
REMARK   48  A    between atoms: _143  and  _145
REMARK   49  A    between atoms: _145  and  _146
REMARK   50  A    between atoms: _145  and  _148
REMARK   51  A    between atoms: _148  and  _149
REMARK   52  A    between atoms: _150  and  ZN_356
REMARK   53  A    between atoms: _154  and  _156
REMARK   54  A    between atoms: _156  and  _157
REMARK   55  A    between atoms: _159  and  _161
REMARK   56  A    between atoms: _161  and  _162
REMARK   57  A    between atoms: _161  and  _164
REMARK   58  A    between atoms: _164  and  _165
REMARK   59  A    between atoms: _165  and  _166
REMARK   60  A    between atoms: _169  and  _171
REMARK   61  A    between atoms: _171  and  _172
REMARK   62  A    between atoms: _171  and  _174
REMARK   63  A    between atoms: _174  and  _175
REMARK   64  A    between atoms: _175  and  _176
REMARK   65  A    between atoms: _179  and  _181
REMARK   66  A    between atoms: _181  and  _182
REMARK   67  A    between atoms: _181  and  _184
REMARK   68  A    between atoms: _184  and  _185
REMARK   69  A    between atoms: _189  and  ZN_356
REMARK   70  A    between atoms: _190  and  _192
REMARK   71  A    between atoms: _192  and  _193
REMARK   72  A    between atoms: _192  and  _195
REMARK   73  A    between atoms: _195  and  _196
REMARK   74  A    between atoms: _199  and  _201
REMARK   75  A    between atoms: _201  and  _202
REMARK   76  A    between atoms: _201  and  _204
REMARK   77  A    between atoms: _204  and  _205
REMARK   78  A    between atoms: _205  and  _206
REMARK   79  A    between atoms: _211  and  _213
REMARK   80  A    between atoms: _213  and  _214
REMARK   81  A    between atoms: _213  and  _216
REMARK   82  A    between atoms: _216  and  _217
REMARK   83  A    between atoms: _222  and  _224
REMARK   84  A    between atoms: _224  and  _225
REMARK   85  A    between atoms: _224  and  _227
REMARK   86  A    between atoms: _227  and  _228
REMARK   87  A    between atoms: _231  and  _233
REMARK   88  A    between atoms: _233  and  _234
REMARK   89  A    between atoms: _233  and  _236
REMARK   90  A    between atoms: _236  and  _237
REMARK   91  A    between atoms: _242  and  _243
REMARK   92  A    between atoms: _245  and  _247
REMARK   93  A    between atoms: _247  and  _248
REMARK   94  A    between atoms: _247  and  _250
REMARK   95  A    between atoms: _252  and  _254
REMARK   96  A    between atoms: _254  and  _255
REMARK   97  A    between atoms: _254  and  _257
REMARK   98  A    between atoms: _257  and  _258
REMARK   99  A    between atoms: _262  and  _263
REMARK  100  A    between atoms: _268  and  _270
REMARK  101  A    between atoms: _270  and  _271
REMARK  102  A    between atoms: _270  and  _273
REMARK  103  A    between atoms: _273  and  _274
REMARK  104  A    between atoms: _277  and  _279
REMARK  105  A    between atoms: _279  and  _280
REMARK  106  A    between atoms: _279  and  _282
REMARK  107  A    between atoms: _282  and  _283
REMARK  108  A    between atoms: _283  and  _284
REMARK  109  A    between atoms: _284  and  ZN_357
REMARK  110  A    between atoms: _286  and  _288
REMARK  111  A    between atoms: _288  and  _289
REMARK  112  A    between atoms: _288  and  _291
REMARK  113  A    between atoms: _291  and  _292
REMARK  114  A    between atoms: _294  and  _296
REMARK  115  A    between atoms: _296  and  _297
REMARK  116  A    between atoms: _301  and  _302
REMARK  117  A    between atoms: _307  and  _309
REMARK  118  A    between atoms: _309  and  _310
REMARK  119  A    between atoms: _309  and  _312
REMARK  120  A    between atoms: _312  and  _313
REMARK  121  A    between atoms: _318  and  _320
REMARK  122  A    between atoms: _320  and  _321
REMARK  123  A    between atoms: _320  and  _323
REMARK  124  A    between atoms: _323  and  _324
REMARK  125  A    between atoms: _324  and  _325
REMARK  126  A    between atoms: _325  and  _326
REMARK  127  A    between atoms: _326  and  _327
REMARK  128  A    between atoms: _331  and  _333
REMARK  129  A    between atoms: _333  and  _334
REMARK  130  A    between atoms: _333  and  _336
REMARK  131  A    between atoms: _338  and  _340
REMARK  132  A    between atoms: _340  and  _341
REMARK  133  A    between atoms: _344  and  _346
REMARK  134  A    between atoms: _346  and  _347
REMARK  135  A    between atoms: _349  and  _351
REMARK  136  A    between atoms: _351  and  _352
REMARK  137  A    between atoms: _351  and  _354
REMARK                            x       y       z     vdW  Elec       q    Type
REMARK                         _______ _______ _______ _____ _____    ______ ____
ROOT
ATOM      1  CA  THR A   1      27.278  34.843  82.311  0.00  0.00    +0.160 C 
ENDROOT
BRANCH   1   2
ATOM      2  N   THR A   1      28.661  34.351  82.204  0.00  0.00    -0.237 NA
ATOM      3  H   THR A   1      28.953  33.897  81.315  0.00  0.00    +0.142 HD
ENDBRANCH   1   2
BRANCH   1   4
ATOM      4  C   THR A   1      26.450  33.863  83.089  0.00  0.00    +0.227 C 
ATOM      5  O   THR A   1      26.827  32.701  83.226  0.00  0.00    -0.287 OA
ENDBRANCH   1   4
BRANCH   1   6
ATOM      6  CB  THR A   1      26.605  34.943  80.934  0.00  0.00    +0.134 C 
ATOM      7  CG2 THR A   1      27.437  35.818  80.028  0.00  0.00    +0.034 C 
BRANCH   6   8
ATOM      8  OG1 THR A   1      26.458  33.615  80.366  0.00  0.00    -0.383 OA
ATOM      9  HG1 THR A   1      26.024  33.683  79.479  0.00  0.00    +0.210 HD
ENDBRANCH   6   8
ENDBRANCH   1   6
TORSDOF 4
REMARK  Name = ../refined-set-2016/2eg8/2eg8_pocket.pdb
REMARK  137 active torsions:
REMARK  status: ('A' for Active; 'I' for Inactive)
REMARK    1  A    between atoms: _1  and  _3
REMARK    2  A    between atoms: _14  and  _17
REMARK    3  A    between atoms: _17  and  _18
REMARK    4  A    between atoms: _23  and  _24
REMARK    5  A    between atoms: _32  and  _34
REMARK    6  A    between atoms: _34  and  _35
REMARK    7  A    between atoms: _34  and  _37
REMARK    8  A    between atoms: _37  and  _38
REMARK    9  A    between atoms: _41  and  _43
REMARK   10  A    between atoms: _43  and  _44
REMARK   11  A    between atoms: _43  and  _46
REMARK   12  A    between atoms: _46  and  _47
REMARK   13  A    between atoms: _47  and  _48
REMARK   14  A    between atoms: _48  and  _49
REMARK   15  A    between atoms: _58  and  _60
REMARK   16  A    between atoms: _60  and  _61
REMARK   17  A    between atoms: _60  and  _63
REMARK   18  A    between atoms: _63  and  _64
REMARK   19  A    between atoms: _64  and  _65
REMARK   20  A    between atoms: _68  and  _69
REMARK   21  A    between atoms: _74  and  _76
REMARK   22  A    between atoms: _76  and  _77
REMARK   23  A    between atoms: _76  and  _79
REMARK   24  A    between atoms: _79  and  _80
REMARK   25  A    between atoms: _85  and  _87
REMARK   26  A    between atoms: _87  and  _88
REMARK   27  A    between atoms: _87  and  _90
REMARK   28  A    between atoms: _90  and  _91
REMARK   29  A    between atoms: _94  and  _96
REMARK   30  A    between atoms: _96  and  _97
REMARK   31  A    between atoms: _96  and  _99
REMARK   32  A    between atoms: _99  and  _100
REMARK   33  A    between atoms: _105  and  _106
REMARK   34  A    between atoms: _108  and  _110
REMARK   35  A    between atoms: _110  and  _111
REMARK   36  A    between atoms: _110  and  _117
REMARK   37  A    between atoms: _111  and  _112
REMARK   38  A    between atoms: _112  and  _113
REMARK   39  A    between atoms: _113  and  _114
REMARK   40  A    between atoms: _114  and  _115
REMARK   41  A    between atoms: _115  and  _119
REMARK   42  A    between atoms: _122  and  _124
REMARK   43  A    between atoms: _124  and  _125
REMARK   44  A    between atoms: _124  and  _127
REMARK   45  A    between atoms: _127  and  _128
REMARK   46  A    between atoms: _133  and  _134
REMARK   47  A    between atoms: _137  and  _138
REMARK   48  A    between atoms: _143  and  _145
REMARK   49  A    between atoms: _145  and  _146
REMARK   50  A    between atoms: _145  and  _148
REMARK   51  A    between atoms: _148  and  _149
REMARK   52  A    between atoms: _150  and  ZN_356
REMARK   53  A    between atoms: _154  and  _156
REMARK   54  A    between atoms: _156  and  _157
REMARK   55  A    between atoms: _159  and  _161
REMARK   56  A    between atoms: _161  and  _162
REMARK   57  A    between atoms: _161  and  _164
REMARK   58  A    between atoms: _164  and  _165
REMARK   59  A    between atoms: _165  and  _166
REMARK   60  A    between atoms: _169  and  _171
REMARK   61  A    between atoms: _171  and  _172
REMARK   62  A    between atoms: _171  and  _174
REMARK   63  A    between atoms: _174  and  _175
REMARK   64  A    between atoms: _175  and  _176
REMARK   65  A    between atoms: _179  and  _181
REMARK   66  A    between atoms: _181  and  _182
REMARK   67  A    between atoms: _181  and  _184
REMARK   68  A    between atoms: _184  and  _185
REMARK   69  A    between atoms: _189  and  ZN_356
REMARK   70  A    between atoms: _190  and  _192
REMARK   71  A    between atoms: _192  and  _193
REMARK   72  A    between atoms: _192  and  _195
REMARK   73  A    between atoms: _195  and  _196
REMARK   74  A    between atoms: _199  and  _201
REMARK   75  A    between atoms: _201  and  _202
REMARK   76  A    between atoms: _201  and  _204
REMARK   77  A    between atoms: _204  and  _205
REMARK   78  A    between atoms: _205  and  _206
REMARK   79  A    between atoms: _211  and  _213
REMARK   80  A    between atoms: _213  and  _214
REMARK   81  A    between atoms: _213  and  _216
REMARK   82  A    between atoms: _216  and  _217
REMARK   83  A    between atoms: _222  and  _224
REMARK   84  A    between atoms: _224  and  _225
REMARK   85  A    between atoms: _224  and  _227
REMARK   86  A    between atoms: _227  and  _228
REMARK   87  A    between atoms: _231  and  _233
REMARK   88  A    between atoms: _233  and  _234
REMARK   89  A    between atoms: _233  and  _236
REMARK   90  A    between atoms: _236  and  _237
REMARK   91  A    between atoms: _242  and  _243
REMARK   92  A    between atoms: _245  and  _247
REMARK   93  A    between atoms: _247  and  _248
REMARK   94  A    between atoms: _247  and  _250
REMARK   95  A    between atoms: _252  and  _254
REMARK   96  A    between atoms: _254  and  _255
REMARK   97  A    between atoms: _254  and  _257
REMARK   98  A    between atoms: _257  and  _258
REMARK   99  A    between atoms: _262  and  _263
REMARK  100  A    between atoms: _268  and  _270
REMARK  101  A    between atoms: _270  and  _271
REMARK  102  A    between atoms: _270  and  _273
REMARK  103  A    between atoms: _273  and  _274
REMARK  104  A    between atoms: _277  and  _279
REMARK  105  A    between atoms: _279  and  _280
REMARK  106  A    between atoms: _279  and  _282
REMARK  107  A    between atoms: _282  and  _283
REMARK  108  A    between atoms: _283  and  _284
REMARK  109  A    between atoms: _284  and  ZN_357
REMARK  110  A    between atoms: _286  and  _288
REMARK  111  A    between atoms: _288  and  _289
REMARK  112  A    between atoms: _288  and  _291
REMARK  113  A    between atoms: _291  and  _292
REMARK  114  A    between atoms: _294  and  _296
REMARK  115  A    between atoms: _296  and  _297
REMARK  116  A    between atoms: _301  and  _302
REMARK  117  A    between atoms: _307  and  _309
REMARK  118  A    between atoms: _309  and  _310
REMARK  119  A    between atoms: _309  and  _312
REMARK  120  A    between atoms: _312  and  _313
REMARK  121  A    between atoms: _318  and  _320
REMARK  122  A    between atoms: _320  and  _321
REMARK  123  A    between atoms: _320  and  _323
REMARK  124  A    between atoms: _323  and  _324
REMARK  125  A    between atoms: _324  and  _325
REMARK  126  A    between atoms: _325  and  _326
REMARK  127  A    between atoms: _326  and  _327
REMARK  128  A    between atoms: _331  and  _333
REMARK  129  A    between atoms: _333  and  _334
REMARK  130  A    between atoms: _333  and  _336
REMARK  131  A    between atoms: _338  and  _340
REMARK  132  A    between atoms: _340  and  _341
REMARK  133  A    between atoms: _344  and  _346
REMARK  134  A    between atoms: _346  and  _347
REMARK  135  A    between atoms: _349  and  _351
REMARK  136  A    between atoms: _351  and  _352
REMARK  137  A    between atoms: _351  and  _354
REMARK                            x       y       z     vdW  Elec       q    Type
REMARK                         _______ _______ _______ _____ _____    ______ ____
ROOT
ATOM      1  C   GLN A   1      23.833  30.597  80.683  0.00  0.00    +0.238 C 
ATOM      2  N   HIS A   2      25.139  30.839  80.601  0.00  0.00    -0.298 N 
ATOM      3  H   HIS A   2      25.499  31.792  80.808  0.00  0.00    +0.150 HD
ATOM      4  O   GLN A   1      23.357  29.487  80.509  0.00  0.00    -0.274 OA
ENDROOT
BRANCH   1   5
ATOM      5  CA  GLN A   1      22.936  31.772  81.038  0.00  0.00    +0.145 C 
BRANCH   5   6
ATOM      6  N   GLN A   1      23.565  32.699  82.010  0.00  0.00    -0.238 NA
ATOM      7  H   GLN A   1      23.757  33.682  81.729  0.00  0.00    +0.142 HD
ENDBRANCH   5   6
BRANCH   5   8
ATOM      8  CB  GLN A   1      22.469  32.481  79.758  0.00  0.00    +0.036 C 
BRANCH   8   9
ATOM      9  CG  GLN A   1      23.552  33.267  78.958  0.00  0.00    +0.087 C 
BRANCH   9  10
ATOM     10  CD  GLN A   1      23.606  34.726  79.342  0.00  0.00    +0.219 C 
ATOM     11  OE1 GLN A   1      23.194  35.078  80.428  0.00  0.00    -0.275 OA
ATOM     12  NE2 GLN A   1      24.107  35.583  78.445  0.00  0.00    -0.329 N 
ATOM     13 HE21 GLN A   1      24.155  36.598  78.666  0.00  0.00    +0.145 HD
ATOM     14 HE22 GLN A   1      24.448  35.234  77.527  0.00  0.00    +0.145 HD
ENDBRANCH   9  10
ENDBRANCH   8   9
ENDBRANCH   5   8
ENDBRANCH   1   5
BRANCH   2  15
ATOM     15  CA  HIS A   2      26.073  29.781  80.223  0.00  0.00    +0.143 C 
BRANCH  15  16
ATOM     16  C   HIS A   2      26.303  28.815  81.361  0.00  0.00    +0.227 C 
ATOM     17  O   HIS A   2      26.704  27.684  81.133  0.00  0.00    -0.286 OA
ENDBRANCH  15  16
BRANCH  15  18
ATOM     18  CB  HIS A   2      27.388  30.344  79.670  0.00  0.00    +0.075 C 
BRANCH  18  19
ATOM     19  CG  HIS A   2      27.228  31.050  78.354  0.00  0.00    +0.082 A 
ATOM     20  ND1 HIS A   2      27.228  32.425  78.247  0.00  0.00    -0.227 NA
ATOM     21  CE1 HIS A   2      27.051  32.765  76.976  0.00  0.00    +0.199 A 
ATOM     22  NE2 HIS A   2      26.925  31.660  76.258  0.00  0.00    -0.221 NA
ATOM     23  CD2 HIS A   2      27.034  30.570  77.093  0.00  0.00    +0.115 A 
ENDBRANCH  18  19
ENDBRANCH  15  18
ENDBRANCH   2  15
TORSDOF 9
REMARK  Name = ../refined-set-2016/2eg8/2eg8_pocket.pdb
REMARK  137 active torsions:
REMARK  status: ('A' for Active; 'I' for Inactive)
REMARK    1  A    between atoms: _1  and  _3
REMARK    2  A    between atoms: _14  and  _17
REMARK    3  A    between atoms: _17  and  _18
REMARK    4  A    between atoms: _23  and  _24
REMARK    5  A    between atoms: _32  and  _34
REMARK    6  A    between atoms: _34  and  _35
REMARK    7  A    between atoms: _34  and  _37
REMARK    8  A    between atoms: _37  and  _38
REMARK    9  A    between atoms: _41  and  _43
REMARK   10  A    between atoms: _43  and  _44
REMARK   11  A    between atoms: _43  and  _46
REMARK   12  A    between atoms: _46  and  _47
REMARK   13  A    between atoms: _47  and  _48
REMARK   14  A    between atoms: _48  and  _49
REMARK   15  A    between atoms: _58  and  _60
REMARK   16  A    between atoms: _60  and  _61
REMARK   17  A    between atoms: _60  and  _63
REMARK   18  A    between atoms: _63  and  _64
REMARK   19  A    between atoms: _64  and  _65
REMARK   20  A    between atoms: _68  and  _69
REMARK   21  A    between atoms: _74  and  _76
REMARK   22  A    between atoms: _76  and  _77
REMARK   23  A    between atoms: _76  and  _79
REMARK   24  A    between atoms: _79  and  _80
REMARK   25  A    between atoms: _85  and  _87
REMARK   26  A    between atoms: _87  and  _88
REMARK   27  A    between atoms: _87  and  _90
REMARK   28  A    between atoms: _90  and  _91
REMARK   29  A    between atoms: _94  and  _96
REMARK   30  A    between atoms: _96  and  _97
REMARK   31  A    between atoms: _96  and  _99
REMARK   32  A    between atoms: _99  and  _100
REMARK   33  A    between atoms: _105  and  _106
REMARK   34  A    between atoms: _108  and  _110
REMARK   35  A    between atoms: _110  and  _111
REMARK   36  A    between atoms: _110  and  _117
REMARK   37  A    between atoms: _111  and  _112
REMARK   38  A    between atoms: _112  and  _113
REMARK   39  A    between atoms: _113  and  _114
REMARK   40  A    between atoms: _114  and  _115
REMARK   41  A    between atoms: _115  and  _119
REMARK   42  A    between atoms: _122  and  _124
REMARK   43  A    between atoms: _124  and  _125
REMARK   44  A    between atoms: _124  and  _127
REMARK   45  A    between atoms: _127  and  _128
REMARK   46  A    between atoms: _133  and  _134
REMARK   47  A    between atoms: _137  and  _138
REMARK   48  A    between atoms: _143  and  _145
REMARK   49  A    between atoms: _145  and  _146
REMARK   50  A    between atoms: _145  and  _148
REMARK   51  A    between atoms: _148  and  _149
REMARK   52  A    between atoms: _150  and  ZN_356
REMARK   53  A    between atoms: _154  and  _156
REMARK   54  A    between atoms: _156  and  _157
REMARK   55  A    between atoms: _159  and  _161
REMARK   56  A    between atoms: _161  and  _162
REMARK   57  A    between atoms: _161  and  _164
REMARK   58  A    between atoms: _164  and  _165
REMARK   59  A    between atoms: _165  and  _166
REMARK   60  A    between atoms: _169  and  _171
REMARK   61  A    between atoms: _171  and  _172
REMARK   62  A    between atoms: _171  and  _174
REMARK   63  A    between atoms: _174  and  _175
REMARK   64  A    between atoms: _175  and  _176
REMARK   65  A    between atoms: _179  and  _181
REMARK   66  A    between atoms: _181  and  _182
REMARK   67  A    between atoms: _181  and  _184
REMARK   68  A    between atoms: _184  and  _185
REMARK   69  A    between atoms: _189  and  ZN_356
REMARK   70  A    between atoms: _190  and  _192
REMARK   71  A    between atoms: _192  and  _193
REMARK   72  A    between atoms: _192  and  _195
REMARK   73  A    between atoms: _195  and  _196
REMARK   74  A    between atoms: _199  and  _201
REMARK   75  A    between atoms: _201  and  _202
REMARK   76  A    between atoms: _201  and  _204
REMARK   77  A    between atoms: _204  and  _205
REMARK   78  A    between atoms: _205  and  _206
REMARK   79  A    between atoms: _211  and  _213
REMARK   80  A    between atoms: _213  and  _214
REMARK   81  A    between atoms: _213  and  _216
REMARK   82  A    between atoms: _216  and  _217
REMARK   83  A    between atoms: _222  and  _224
REMARK   84  A    between atoms: _224  and  _225
REMARK   85  A    between atoms: _224  and  _227
REMARK   86  A    between atoms: _227  and  _228
REMARK   87  A    between atoms: _231  and  _233
REMARK   88  A    between atoms: _233  and  _234
REMARK   89  A    between atoms: _233  and  _236
REMARK   90  A    between atoms: _236  and  _237
REMARK   91  A    between atoms: _242  and  _243
REMARK   92  A    between atoms: _245  and  _247
REMARK   93  A    between atoms: _247  and  _248
REMARK   94  A    between atoms: _247  and  _250
REMARK   95  A    between atoms: _252  and  _254
REMARK   96  A    between atoms: _254  and  _255
REMARK   97  A    between atoms: _254  and  _257
REMARK   98  A    between atoms: _257  and  _258
REMARK   99  A    between atoms: _262  and  _263
REMARK  100  A    between atoms: _268  and  _270
REMARK  101  A    between atoms: _270  and  _271
REMARK  102  A    between atoms: _270  and  _273
REMARK  103  A    between atoms: _273  and  _274
REMARK  104  A    between atoms: _277  and  _279
REMARK  105  A    between atoms: _279  and  _280
REMARK  106  A    between atoms: _279  and  _282
REMARK  107  A    between atoms: _282  and  _283
REMARK  108  A    between atoms: _283  and  _284
REMARK  109  A    between atoms: _284  and  ZN_357
REMARK  110  A    between atoms: _286  and  _288
REMARK  111  A    between atoms: _288  and  _289
REMARK  112  A    between atoms: _288  and  _291
REMARK  113  A    between atoms: _291  and  _292
REMARK  114  A    between atoms: _294  and  _296
REMARK  115  A    between atoms: _296  and  _297
REMARK  116  A    between atoms: _301  and  _302
REMARK  117  A    between atoms: _307  and  _309
REMARK  118  A    between atoms: _309  and  _310
REMARK  119  A    between atoms: _309  and  _312
REMARK  120  A    between atoms: _312  and  _313
REMARK  121  A    between atoms: _318  and  _320
REMARK  122  A    between atoms: _320  and  _321
REMARK  123  A    between atoms: _320  and  _323
REMARK  124  A    between atoms: _323  and  _324
REMARK  125  A    between atoms: _324  and  _325
REMARK  126  A    between atoms: _325  and  _326
REMARK  127  A    between atoms: _326  and  _327
REMARK  128  A    between atoms: _331  and  _333
REMARK  129  A    between atoms: _333  and  _334
REMARK  130  A    between atoms: _333  and  _336
REMARK  131  A    between atoms: _338  and  _340
REMARK  132  A    between atoms: _340  and  _341
REMARK  133  A    between atoms: _344  and  _346
REMARK  134  A    between atoms: _346  and  _347
REMARK  135  A    between atoms: _349  and  _351
REMARK  136  A    between atoms: _351  and  _352
REMARK  137  A    between atoms: _351  and  _354
REMARK                            x       y       z     vdW  Elec       q    Type
REMARK                         _______ _______ _______ _____ _____    ______ ____
ROOT
ATOM      1  CA  CYS A   3      23.292  35.230  72.515  0.00  0.00    +0.160 C 
ENDROOT
BRANCH   1   3
ATOM      2  C   TYR A   2      20.971  34.559  72.136  0.00  0.00    +0.241 C 
ATOM      3  N   CYS A   3      22.247  34.245  72.318  0.00  0.00    -0.296 N 
ATOM      4  H   CYS A   3      22.511  33.239  72.319  0.00  0.00    +0.150 HD
ATOM      5  O   TYR A   2      20.522  35.707  72.221  0.00  0.00    -0.273 OA
BRANCH   2   6
ATOM      6  CA  TYR A   2      20.077  33.382  71.800  0.00  0.00    +0.153 C 
BRANCH   6   9
ATOM      7  C   LEU A   1      19.421  32.551  74.013  0.00  0.00    +0.238 C 
ATOM      8  O   LEU A   1      20.539  32.107  74.239  0.00  0.00    -0.274 OA
ATOM      9  N   TYR A   2      19.103  33.172  72.870  0.00  0.00    -0.297 N 
ATOM     10  H   TYR A   2      18.131  33.517  72.739  0.00  0.00    +0.150 HD
BRANCH   7  11
ATOM     11  CA  LEU A   1      18.328  32.426  75.087  0.00  0.00    +0.145 C 
BRANCH  11  12
ATOM     12  N   LEU A   1      17.115  33.139  74.714  0.00  0.00    -0.238 NA
ATOM     13  H   LEU A   1      16.393  32.650  74.148  0.00  0.00    +0.142 HD
ENDBRANCH  11  12
BRANCH  11  14
ATOM     14  CB  LEU A   1      18.021  30.940  75.379  0.00  0.00    +0.026 C 
BRANCH  14  15
ATOM     15  CG  LEU A   1      17.051  30.708  76.550  0.00  0.00    +0.002 C 
ATOM     16  CD2 LEU A   1      17.461  31.541  77.737  0.00  0.00    +0.000 C 
ATOM     17  CD1 LEU A   1      16.922  29.225  76.965  0.00  0.00    +0.000 C 
ENDBRANCH  14  15
ENDBRANCH  11  14
ENDBRANCH   7  11
ENDBRANCH   6   9
BRANCH   6  18
ATOM     18  CB  TYR A   2      19.400  33.605  70.449  0.00  0.00    +0.055 C 
BRANCH  18  19
ATOM     19  CG  TYR A   2      20.366  33.865  69.310  0.00  0.00    -0.020 A 
ATOM     20  CD2 TYR A   2      20.558  35.153  68.822  0.00  0.00    -0.001 A 
ATOM     21  CE2 TYR A   2      21.428  35.411  67.793  0.00  0.00    +0.036 A 
ATOM     22  CZ  TYR A   2      22.149  34.378  67.227  0.00  0.00    +0.134 A 
ATOM     23  CE1 TYR A   2      21.986  33.075  67.690  0.00  0.00    +0.036 A 
ATOM     24  CD1 TYR A   2      21.089  32.832  68.735  0.00  0.00    -0.001 A 
BRANCH  22  25
ATOM     25  OH  TYR A   2      23.024  34.671  66.202  0.00  0.00    -0.506 OA
ATOM     26  HH  TYR A   2      23.466  33.839  65.899  0.00  0.00    +0.292 HD
ENDBRANCH  22  25
ENDBRANCH  18  19
ENDBRANCH   6  18
ENDBRANCH   2   6
ENDBRANCH   1   3
BRANCH   1  27
ATOM     27  C   CYS A   3      24.598  34.698  71.910  0.00  0.00    +0.242 C 
ATOM     28  N   LEU A   4      25.608  35.567  71.907  0.00  0.00    -0.297 N 
ATOM     29  H   LEU A   4      25.418  36.548  72.196  0.00  0.00    +0.150 HD
ATOM     30  O   CYS A   3      24.664  33.538  71.436  0.00  0.00    -0.273 OA
BRANCH  28  31
ATOM     31  CA  LEU A   4      26.984  35.204  71.513  0.00  0.00    +0.149 C 
BRANCH  31  32
ATOM     32  C   LEU A   4      27.962  35.389  72.676  0.00  0.00    +0.244 C 
ATOM     33  O   LEU A   4      27.932  36.408  73.360  0.00  0.00    -0.273 OA
ATOM     34  N   PRO A   5      28.879  34.438  72.861  0.00  0.00    -0.272 N 
ATOM     35  CD  PRO A   5      29.898  34.528  73.917  0.00  0.00    +0.094 C 
ATOM     36  CG  PRO A   5      30.988  33.687  73.402  0.00  0.00    +0.024 C 
ATOM     37  CB  PRO A   5      30.296  32.602  72.659  0.00  0.00    +0.031 C 
ATOM     38  CA  PRO A   5      29.022  33.229  72.087  0.00  0.00    +0.152 C 
BRANCH  38  39
ATOM     39  C   PRO A   5      27.806  32.308  72.322  0.00  0.00    +0.241 C 
ATOM     40  O   PRO A   5      27.188  32.371  73.372  0.00  0.00    -0.273 OA
ATOM     41  N   ILE A   6      27.455  31.504  71.327  0.00  0.00    -0.298 N 
ATOM     42  H   ILE A   6      28.030  31.500  70.461  0.00  0.00    +0.150 HD
BRANCH  41  43
ATOM     43  CA  ILE A   6      26.295  30.626  71.401  0.00  0.00    +0.137 C 
BRANCH  43  44
ATOM     44  CB  ILE A   6      26.056  29.933  70.034  0.00  0.00    +0.026 C 
ATOM     45  CG2 ILE A   6      27.079  28.841  69.768  0.00  0.00    +0.002 C 
BRANCH  44  46
ATOM     46  CG1 ILE A   6      24.619  29.427  69.910  0.00  0.00    +0.002 C 
ATOM     47  CD1 ILE A   6      24.094  29.524  68.523  0.00  0.00    +0.000 C 
ENDBRANCH  44  46
ENDBRANCH  43  44
BRANCH  43  48
ATOM     48  C   ILE A   6      26.424  29.611  72.548  0.00  0.00    +0.227 C 
ATOM     49  O   ILE A   6      27.507  29.185  72.878  0.00  0.00    -0.286 OA
ENDBRANCH  43  48
ENDBRANCH  41  43
ENDBRANCH  38  39
ENDBRANCH  31  32
BRANCH  31  50
ATOM     50  CB  LEU A   4      27.477  36.050  70.323  0.00  0.00    +0.029 C 
BRANCH  50  51
ATOM     51  CG  LEU A   4      26.632  36.031  69.043  0.00  0.00    +0.002 C 
ATOM     52  CD2 LEU A   4      26.407  34.607  68.494  0.00  0.00    +0.000 C 
ATOM     53  CD1 LEU A   4      27.284  36.934  68.004  0.00  0.00    +0.000 C 
ENDBRANCH  50  51
ENDBRANCH  31  50
ENDBRANCH  28  31
ENDBRANCH   1  27
BRANCH   1  54
ATOM     54  CB  CYS A   3      23.508  35.472  74.000  0.00  0.00    +0.098 C 
ATOM     55  SG  CYS A   3      24.043  33.935  74.851  0.00  0.00    -0.080 S 
ENDBRANCH   1  54
TORSDOF 21
REMARK  Name = ../refined-set-2016/2eg8/2eg8_pocket.pdb
REMARK  137 active torsions:
REMARK  status: ('A' for Active; 'I' for Inactive)
REMARK    1  A    between atoms: _1  and  _3
REMARK    2  A    between atoms: _14  and  _17
REMARK    3  A    between atoms: _17  and  _18
REMARK    4  A    between atoms: _23  and  _24
REMARK    5  A    between atoms: _32  and  _34
REMARK    6  A    between atoms: _34  and  _35
REMARK    7  A    between atoms: _34  and  _37
REMARK    8  A    between atoms: _37  and  _38
REMARK    9  A    between atoms: _41  and  _43
REMARK   10  A    between atoms: _43  and  _44
REMARK   11  A    between atoms: _43  and  _46
REMARK   12  A    between atoms: _46  and  _47
REMARK   13  A    between atoms: _47  and  _48
REMARK   14  A    between atoms: _48  and  _49
REMARK   15  A    between atoms: _58  and  _60
REMARK   16  A    between atoms: _60  and  _61
REMARK   17  A    between atoms: _60  and  _63
REMARK   18  A    between atoms: _63  and  _64
REMARK   19  A    between atoms: _64  and  _65
REMARK   20  A    between atoms: _68  and  _69
REMARK   21  A    between atoms: _74  and  _76
REMARK   22  A    between atoms: _76  and  _77
REMARK   23  A    between atoms: _76  and  _79
REMARK   24  A    between atoms: _79  and  _80
REMARK   25  A    between atoms: _85  and  _87
REMARK   26  A    between atoms: _87  and  _88
REMARK   27  A    between atoms: _87  and  _90
REMARK   28  A    between atoms: _90  and  _91
REMARK   29  A    between atoms: _94  and  _96
REMARK   30  A    between atoms: _96  and  _97
REMARK   31  A    between atoms: _96  and  _99
REMARK   32  A    between atoms: _99  and  _100
REMARK   33  A    between atoms: _105  and  _106
REMARK   34  A    between atoms: _108  and  _110
REMARK   35  A    between atoms: _110  and  _111
REMARK   36  A    between atoms: _110  and  _117
REMARK   37  A    between atoms: _111  and  _112
REMARK   38  A    between atoms: _112  and  _113
REMARK   39  A    between atoms: _113  and  _114
REMARK   40  A    between atoms: _114  and  _115
REMARK   41  A    between atoms: _115  and  _119
REMARK   42  A    between atoms: _122  and  _124
REMARK   43  A    between atoms: _124  and  _125
REMARK   44  A    between atoms: _124  and  _127
REMARK   45  A    between atoms: _127  and  _128
REMARK   46  A    between atoms: _133  and  _134
REMARK   47  A    between atoms: _137  and  _138
REMARK   48  A    between atoms: _143  and  _145
REMARK   49  A    between atoms: _145  and  _146
REMARK   50  A    between atoms: _145  and  _148
REMARK   51  A    between atoms: _148  and  _149
REMARK   52  A    between atoms: _150  and  ZN_356
REMARK   53  A    between atoms: _154  and  _156
REMARK   54  A    between atoms: _156  and  _157
REMARK   55  A    between atoms: _159  and  _161
REMARK   56  A    between atoms: _161  and  _162
REMARK   57  A    between atoms: _161  and  _164
REMARK   58  A    between atoms: _164  and  _165
REMARK   59  A    between atoms: _165  and  _166
REMARK   60  A    between atoms: _169  and  _171
REMARK   61  A    between atoms: _171  and  _172
REMARK   62  A    between atoms: _171  and  _174
REMARK   63  A    between atoms: _174  and  _175
REMARK   64  A    between atoms: _175  and  _176
REMARK   65  A    between atoms: _179  and  _181
REMARK   66  A    between atoms: _181  and  _182
REMARK   67  A    between atoms: _181  and  _184
REMARK   68  A    between atoms: _184  and  _185
REMARK   69  A    between atoms: _189  and  ZN_356
REMARK   70  A    between atoms: _190  and  _192
REMARK   71  A    between atoms: _192  and  _193
REMARK   72  A    between atoms: _192  and  _195
REMARK   73  A    between atoms: _195  and  _196
REMARK   74  A    between atoms: _199  and  _201
REMARK   75  A    between atoms: _201  and  _202
REMARK   76  A    between atoms: _201  and  _204
REMARK   77  A    between atoms: _204  and  _205
REMARK   78  A    between atoms: _205  and  _206
REMARK   79  A    between atoms: _211  and  _213
REMARK   80  A    between atoms: _213  and  _214
REMARK   81  A    between atoms: _213  and  _216
REMARK   82  A    between atoms: _216  and  _217
REMARK   83  A    between atoms: _222  and  _224
REMARK   84  A    between atoms: _224  and  _225
REMARK   85  A    between atoms: _224  and  _227
REMARK   86  A    between atoms: _227  and  _228
REMARK   87  A    between atoms: _231  and  _233
REMARK   88  A    between atoms: _233  and  _234
REMARK   89  A    between atoms: _233  and  _236
REMARK   90  A    between atoms: _236  and  _237
REMARK   91  A    between atoms: _242  and  _243
REMARK   92  A    between atoms: _245  and  _247
REMARK   93  A    between atoms: _247  and  _248
REMARK   94  A    between atoms: _247  and  _250
REMARK   95  A    between atoms: _252  and  _254
REMARK   96  A    between atoms: _254  and  _255
REMARK   97  A    between atoms: _254  and  _257
REMARK   98  A    between atoms: _257  and  _258
REMARK   99  A    between atoms: _262  and  _263
REMARK  100  A    between atoms: _268  and  _270
REMARK  101  A    between atoms: _270  and  _271
REMARK  102  A    between atoms: _270  and  _273
REMARK  103  A    between atoms: _273  and  _274
REMARK  104  A    between atoms: _277  and  _279
REMARK  105  A    between atoms: _279  and  _280
REMARK  106  A    between atoms: _279  and  _282
REMARK  107  A    between atoms: _282  and  _283
REMARK  108  A    between atoms: _283  and  _284
REMARK  109  A    between atoms: _284  and  ZN_357
REMARK  110  A    between atoms: _286  and  _288
REMARK  111  A    between atoms: _288  and  _289
REMARK  112  A    between atoms: _288  and  _291
REMARK  113  A    between atoms: _291  and  _292
REMARK  114  A    between atoms: _294  and  _296
REMARK  115  A    between atoms: _296  and  _297
REMARK  116  A    between atoms: _301  and  _302
REMARK  117  A    between atoms: _307  and  _309
REMARK  118  A    between atoms: _309  and  _310
REMARK  119  A    between atoms: _309  and  _312
REMARK  120  A    between atoms: _312  and  _313
REMARK  121  A    between atoms: _318  and  _320
REMARK  122  A    between atoms: _320  and  _321
REMARK  123  A    between atoms: _320  and  _323
REMARK  124  A    between atoms: _323  and  _324
REMARK  125  A    between atoms: _324  and  _325
REMARK  126  A    between atoms: _325  and  _326
REMARK  127  A    between atoms: _326  and  _327
REMARK  128  A    between atoms: _331  and  _333
REMARK  129  A    between atoms: _333  and  _334
REMARK  130  A    between atoms: _333  and  _336
REMARK  131  A    between atoms: _338  and  _340
REMARK  132  A    between atoms: _340  and  _341
REMARK  133  A    between atoms: _344  and  _346
REMARK  134  A    between atoms: _346  and  _347
REMARK  135  A    between atoms: _349  and  _351
REMARK  136  A    between atoms: _351  and  _352
REMARK  137  A    between atoms: _351  and  _354
REMARK                            x       y       z     vdW  Elec       q    Type
REMARK                         _______ _______ _______ _____ _____    ______ ____
ROOT
ATOM      1  CG  LYS A   1      15.332  40.144  71.845  0.00  0.00    -0.000 C 
ENDROOT
BRANCH   1   2
ATOM      2  CB  LYS A   1      14.312  39.420  70.994  0.00  0.00    +0.025 C 
BRANCH   2   3
ATOM      3  CA  LYS A   1      14.481  39.531  69.468  0.00  0.00    +0.133 C 
BRANCH   3   4
ATOM      4  N   LYS A   1      14.103  40.870  68.963  0.00  0.00    -0.239 NA
ATOM      5  H   LYS A   1      13.341  41.394  69.439  0.00  0.00    +0.142 HD
ENDBRANCH   3   4
BRANCH   3   6
ATOM      6  C   LYS A   1      13.634  38.448  68.828  0.00  0.00    +0.224 C 
ATOM      7  O   LYS A   1      14.159  37.402  68.453  0.00  0.00    -0.287 OA
ENDBRANCH   3   6
ENDBRANCH   2   3
ENDBRANCH   1   2
BRANCH   1   8
ATOM      8  CD  LYS A   1      16.743  39.561  71.731  0.00  0.00    -0.024 C 
BRANCH   8   9
ATOM      9  CE  LYS A   1      16.803  38.086  72.045  0.00  0.00    -0.086 C 
BRANCH   9  10
ATOM     10  NZ  LYS A   1      18.254  37.670  72.261  0.00  0.00    +0.380 N 
ATOM     11  HZ1 LYS A   1      18.654  38.210  73.055  0.00  0.00    -0.089 HD
ATOM     12  HZ2 LYS A   1      18.293  36.653  72.477  0.00  0.00    -0.089 HD
ATOM     13  HZ3 LYS A   1      18.801  37.864  71.398  0.00  0.00    -0.089 HD
ENDBRANCH   9  10
ENDBRANCH   8   9
ENDBRANCH   1   8
TORSDOF 7
REMARK  Name = ../refined-set-2016/2eg8/2eg8_pocket.pdb
REMARK  137 active torsions:
REMARK  status: ('A' for Active; 'I' for Inactive)
REMARK    1  A    between atoms: _1  and  _3
REMARK    2  A    between atoms: _14  and  _17
REMARK    3  A    between atoms: _17  and  _18
REMARK    4  A    between atoms: _23  and  _24
REMARK    5  A    between atoms: _32  and  _34
REMARK    6  A    between atoms: _34  and  _35
REMARK    7  A    between atoms: _34  and  _37
REMARK    8  A    between atoms: _37  and  _38
REMARK    9  A    between atoms: _41  and  _43
REMARK   10  A    between atoms: _43  and  _44
REMARK   11  A    between atoms: _43  and  _46
REMARK   12  A    between atoms: _46  and  _47
REMARK   13  A    between atoms: _47  and  _48
REMARK   14  A    between atoms: _48  and  _49
REMARK   15  A    between atoms: _58  and  _60
REMARK   16  A    between atoms: _60  and  _61
REMARK   17  A    between atoms: _60  and  _63
REMARK   18  A    between atoms: _63  and  _64
REMARK   19  A    between atoms: _64  and  _65
REMARK   20  A    between atoms: _68  and  _69
REMARK   21  A    between atoms: _74  and  _76
REMARK   22  A    between atoms: _76  and  _77
REMARK   23  A    between atoms: _76  and  _79
REMARK   24  A    between atoms: _79  and  _80
REMARK   25  A    between atoms: _85  and  _87
REMARK   26  A    between atoms: _87  and  _88
REMARK   27  A    between atoms: _87  and  _90
REMARK   28  A    between atoms: _90  and  _91
REMARK   29  A    between atoms: _94  and  _96
REMARK   30  A    between atoms: _96  and  _97
REMARK   31  A    between atoms: _96  and  _99
REMARK   32  A    between atoms: _99  and  _100
REMARK   33  A    between atoms: _105  and  _106
REMARK   34  A    between atoms: _108  and  _110
REMARK   35  A    between atoms: _110  and  _111
REMARK   36  A    between atoms: _110  and  _117
REMARK   37  A    between atoms: _111  and  _112
REMARK   38  A    between atoms: _112  and  _113
REMARK   39  A    between atoms: _113  and  _114
REMARK   40  A    between atoms: _114  and  _115
REMARK   41  A    between atoms: _115  and  _119
REMARK   42  A    between atoms: _122  and  _124
REMARK   43  A    between atoms: _124  and  _125
REMARK   44  A    between atoms: _124  and  _127
REMARK   45  A    between atoms: _127  and  _128
REMARK   46  A    between atoms: _133  and  _134
REMARK   47  A    between atoms: _137  and  _138
REMARK   48  A    between atoms: _143  and  _145
REMARK   49  A    between atoms: _145  and  _146
REMARK   50  A    between atoms: _145  and  _148
REMARK   51  A    between atoms: _148  and  _149
REMARK   52  A    between atoms: _150  and  ZN_356
REMARK   53  A    between atoms: _154  and  _156
REMARK   54  A    between atoms: _156  and  _157
REMARK   55  A    between atoms: _159  and  _161
REMARK   56  A    between atoms: _161  and  _162
REMARK   57  A    between atoms: _161  and  _164
REMARK   58  A    between atoms: _164  and  _165
REMARK   59  A    between atoms: _165  and  _166
REMARK   60  A    between atoms: _169  and  _171
REMARK   61  A    between atoms: _171  and  _172
REMARK   62  A    between atoms: _171  and  _174
REMARK   63  A    between atoms: _174  and  _175
REMARK   64  A    between atoms: _175  and  _176
REMARK   65  A    between atoms: _179  and  _181
REMARK   66  A    between atoms: _181  and  _182
REMARK   67  A    between atoms: _181  and  _184
REMARK   68  A    between atoms: _184  and  _185
REMARK   69  A    between atoms: _189  and  ZN_356
REMARK   70  A    between atoms: _190  and  _192
REMARK   71  A    between atoms: _192  and  _193
REMARK   72  A    between atoms: _192  and  _195
REMARK   73  A    between atoms: _195  and  _196
REMARK   74  A    between atoms: _199  and  _201
REMARK   75  A    between atoms: _201  and  _202
REMARK   76  A    between atoms: _201  and  _204
REMARK   77  A    between atoms: _204  and  _205
REMARK   78  A    between atoms: _205  and  _206
REMARK   79  A    between atoms: _211  and  _213
REMARK   80  A    between atoms: _213  and  _214
REMARK   81  A    between atoms: _213  and  _216
REMARK   82  A    between atoms: _216  and  _217
REMARK   83  A    between atoms: _222  and  _224
REMARK   84  A    between atoms: _224  and  _225
REMARK   85  A    between atoms: _224  and  _227
REMARK   86  A    between atoms: _227  and  _228
REMARK   87  A    between atoms: _231  and  _233
REMARK   88  A    between atoms: _233  and  _234
REMARK   89  A    between atoms: _233  and  _236
REMARK   90  A    between atoms: _236  and  _237
REMARK   91  A    between atoms: _242  and  _243
REMARK   92  A    between atoms: _245  and  _247
REMARK   93  A    between atoms: _247  and  _248
REMARK   94  A    between atoms: _247  and  _250
REMARK   95  A    between atoms: _252  and  _254
REMARK   96  A    between atoms: _254  and  _255
REMARK   97  A    between atoms: _254  and  _257
REMARK   98  A    between atoms: _257  and  _258
REMARK   99  A    between atoms: _262  and  _263
REMARK  100  A    between atoms: _268  and  _270
REMARK  101  A    between atoms: _270  and  _271
REMARK  102  A    between atoms: _270  and  _273
REMARK  103  A    between atoms: _273  and  _274
REMARK  104  A    between atoms: _277  and  _279
REMARK  105  A    between atoms: _279  and  _280
REMARK  106  A    between atoms: _279  and  _282
REMARK  107  A    between atoms: _282  and  _283
REMARK  108  A    between atoms: _283  and  _284
REMARK  109  A    between atoms: _284  and  ZN_357
REMARK  110  A    between atoms: _286  and  _288
REMARK  111  A    between atoms: _288  and  _289
REMARK  112  A    between atoms: _288  and  _291
REMARK  113  A    between atoms: _291  and  _292
REMARK  114  A    between atoms: _294  and  _296
REMARK  115  A    between atoms: _296  and  _297
REMARK  116  A    between atoms: _301  and  _302
REMARK  117  A    between atoms: _307  and  _309
REMARK  118  A    between atoms: _309  and  _310
REMARK  119  A    between atoms: _309  and  _312
REMARK  120  A    between atoms: _312  and  _313
REMARK  121  A    between atoms: _318  and  _320
REMARK  122  A    between atoms: _320  and  _321
REMARK  123  A    between atoms: _320  and  _323
REMARK  124  A    between atoms: _323  and  _324
REMARK  125  A    between atoms: _324  and  _325
REMARK  126  A    between atoms: _325  and  _326
REMARK  127  A    between atoms: _326  and  _327
REMARK  128  A    between atoms: _331  and  _333
REMARK  129  A    between atoms: _333  and  _334
REMARK  130  A    between atoms: _333  and  _336
REMARK  131  A    between atoms: _338  and  _340
REMARK  132  A    between atoms: _340  and  _341
REMARK  133  A    between atoms: _344  and  _346
REMARK  134  A    between atoms: _346  and  _347
REMARK  135  A    between atoms: _349  and  _351
REMARK  136  A    between atoms: _351  and  _352
REMARK  137  A    between atoms: _351  and  _354
REMARK                            x       y       z     vdW  Elec       q    Type
REMARK                         _______ _______ _______ _____ _____    ______ ____
ROOT
ATOM      1  C   ALA A   2      22.004  38.991  71.346  0.00  0.00    +0.241 C 
ATOM      2  N   GLY A   3      21.670  38.400  72.496  0.00  0.00    -0.295 N 
ATOM      3  H   GLY A   3      21.264  37.443  72.457  0.00  0.00    +0.150 HD
ATOM      4  O   ALA A   2      22.423  40.144  71.258  0.00  0.00    -0.273 OA
ENDROOT
BRANCH   1   5
ATOM      5  CA  ALA A   2      21.902  38.132  70.102  0.00  0.00    +0.149 C 
ATOM      6  CB  ALA A   2      23.340  37.743  69.658  0.00  0.00    +0.031 C 
BRANCH   5   9
ATOM      7  C   CYS A   1      19.927  38.989  68.912  0.00  0.00    +0.239 C 
ATOM      8  O   CYS A   1      19.142  38.475  69.689  0.00  0.00    -0.274 OA
ATOM      9  N   ALA A   2      21.239  38.865  69.027  0.00  0.00    -0.297 N 
ATOM     10  H   ALA A   2      21.836  39.318  68.306  0.00  0.00    +0.150 HD
BRANCH   7  11
ATOM     11  CA  CYS A   1      19.444  39.836  67.730  0.00  0.00    +0.156 C 
BRANCH  11  12
ATOM     12  N   CYS A   1      18.221  39.358  67.096  0.00  0.00    -0.237 NA
ATOM     13  H   CYS A   1      17.394  39.989  67.082  0.00  0.00    +0.142 HD
ENDBRANCH  11  12
BRANCH  11  14
ATOM     14  CB  CYS A   1      19.289  41.294  68.157  0.00  0.00    +0.095 C 
ATOM     15  SG  CYS A   1      18.793  42.423  66.869  0.00  0.00    -0.080 S 
ENDBRANCH  11  14
ENDBRANCH   7  11
ENDBRANCH   5   9
ENDBRANCH   1   5
BRANCH   2  16
ATOM     16  CA  GLY A   3      21.842  39.020  73.800  0.00  0.00    +0.176 C 
BRANCH  16  17
ATOM     17  C   GLY A   3      20.658  38.777  74.744  0.00  0.00    +0.243 C 
ATOM     18  N   CYS A   4      20.977  38.395  75.976  0.00  0.00    -0.297 N 
ATOM     19  H   CYS A   4      21.977  38.193  76.180  0.00  0.00    +0.150 HD
ATOM     20  O   GLY A   3      19.500  38.914  74.361  0.00  0.00    -0.273 OA
BRANCH  18  21
ATOM     21  CA  CYS A   4      20.021  38.242  77.053  0.00  0.00    +0.149 C 
BRANCH  21  22
ATOM     22  C   CYS A   4      19.999  39.489  77.969  0.00  0.00    +0.228 C 
ATOM     23  O   CYS A   4      21.047  39.932  78.450  0.00  0.00    -0.286 OA
ENDBRANCH  21  22
BRANCH  21  24
ATOM     24  CB  CYS A   4      20.414  37.023  77.897  0.00  0.00    +0.096 C 
ATOM     25  SG  CYS A   4      20.815  35.522  76.936  0.00  0.00    -0.080 S 
ENDBRANCH  21  24
ENDBRANCH  18  21
ENDBRANCH  16  17
ENDBRANCH   2  16
TORSDOF 10
REMARK  Name = ../refined-set-2016/2eg8/2eg8_pocket.pdb
REMARK  137 active torsions:
REMARK  status: ('A' for Active; 'I' for Inactive)
REMARK    1  A    between atoms: _1  and  _3
REMARK    2  A    between atoms: _14  and  _17
REMARK    3  A    between atoms: _17  and  _18
REMARK    4  A    between atoms: _23  and  _24
REMARK    5  A    between atoms: _32  and  _34
REMARK    6  A    between atoms: _34  and  _35
REMARK    7  A    between atoms: _34  and  _37
REMARK    8  A    between atoms: _37  and  _38
REMARK    9  A    between atoms: _41  and  _43
REMARK   10  A    between atoms: _43  and  _44
REMARK   11  A    between atoms: _43  and  _46
REMARK   12  A    between atoms: _46  and  _47
REMARK   13  A    between atoms: _47  and  _48
REMARK   14  A    between atoms: _48  and  _49
REMARK   15  A    between atoms: _58  and  _60
REMARK   16  A    between atoms: _60  and  _61
REMARK   17  A    between atoms: _60  and  _63
REMARK   18  A    between atoms: _63  and  _64
REMARK   19  A    between atoms: _64  and  _65
REMARK   20  A    between atoms: _68  and  _69
REMARK   21  A    between atoms: _74  and  _76
REMARK   22  A    between atoms: _76  and  _77
REMARK   23  A    between atoms: _76  and  _79
REMARK   24  A    between atoms: _79  and  _80
REMARK   25  A    between atoms: _85  and  _87
REMARK   26  A    between atoms: _87  and  _88
REMARK   27  A    between atoms: _87  and  _90
REMARK   28  A    between atoms: _90  and  _91
REMARK   29  A    between atoms: _94  and  _96
REMARK   30  A    between atoms: _96  and  _97
REMARK   31  A    between atoms: _96  and  _99
REMARK   32  A    between atoms: _99  and  _100
REMARK   33  A    between atoms: _105  and  _106
REMARK   34  A    between atoms: _108  and  _110
REMARK   35  A    between atoms: _110  and  _111
REMARK   36  A    between atoms: _110  and  _117
REMARK   37  A    between atoms: _111  and  _112
REMARK   38  A    between atoms: _112  and  _113
REMARK   39  A    between atoms: _113  and  _114
REMARK   40  A    between atoms: _114  and  _115
REMARK   41  A    between atoms: _115  and  _119
REMARK   42  A    between atoms: _122  and  _124
REMARK   43  A    between atoms: _124  and  _125
REMARK   44  A    between atoms: _124  and  _127
REMARK   45  A    between atoms: _127  and  _128
REMARK   46  A    between atoms: _133  and  _134
REMARK   47  A    between atoms: _137  and  _138
REMARK   48  A    between atoms: _143  and  _145
REMARK   49  A    between atoms: _145  and  _146
REMARK   50  A    between atoms: _145  and  _148
REMARK   51  A    between atoms: _148  and  _149
REMARK   52  A    between atoms: _150  and  ZN_356
REMARK   53  A    between atoms: _154  and  _156
REMARK   54  A    between atoms: _156  and  _157
REMARK   55  A    between atoms: _159  and  _161
REMARK   56  A    between atoms: _161  and  _162
REMARK   57  A    between atoms: _161  and  _164
REMARK   58  A    between atoms: _164  and  _165
REMARK   59  A    between atoms: _165  and  _166
REMARK   60  A    between atoms: _169  and  _171
REMARK   61  A    between atoms: _171  and  _172
REMARK   62  A    between atoms: _171  and  _174
REMARK   63  A    between atoms: _174  and  _175
REMARK   64  A    between atoms: _175  and  _176
REMARK   65  A    between atoms: _179  and  _181
REMARK   66  A    between atoms: _181  and  _182
REMARK   67  A    between atoms: _181  and  _184
REMARK   68  A    between atoms: _184  and  _185
REMARK   69  A    between atoms: _189  and  ZN_356
REMARK   70  A    between atoms: _190  and  _192
REMARK   71  A    between atoms: _192  and  _193
REMARK   72  A    between atoms: _192  and  _195
REMARK   73  A    between atoms: _195  and  _196
REMARK   74  A    between atoms: _199  and  _201
REMARK   75  A    between atoms: _201  and  _202
REMARK   76  A    between atoms: _201  and  _204
REMARK   77  A    between atoms: _204  and  _205
REMARK   78  A    between atoms: _205  and  _206
REMARK   79  A    between atoms: _211  and  _213
REMARK   80  A    between atoms: _213  and  _214
REMARK   81  A    between atoms: _213  and  _216
REMARK   82  A    between atoms: _216  and  _217
REMARK   83  A    between atoms: _222  and  _224
REMARK   84  A    between atoms: _224  and  _225
REMARK   85  A    between atoms: _224  and  _227
REMARK   86  A    between atoms: _227  and  _228
REMARK   87  A    between atoms: _231  and  _233
REMARK   88  A    between atoms: _233  and  _234
REMARK   89  A    between atoms: _233  and  _236
REMARK   90  A    between atoms: _236  and  _237
REMARK   91  A    between atoms: _242  and  _243
REMARK   92  A    between atoms: _245  and  _247
REMARK   93  A    between atoms: _247  and  _248
REMARK   94  A    between atoms: _247  and  _250
REMARK   95  A    between atoms: _252  and  _254
REMARK   96  A    between atoms: _254  and  _255
REMARK   97  A    between atoms: _254  and  _257
REMARK   98  A    between atoms: _257  and  _258
REMARK   99  A    between atoms: _262  and  _263
REMARK  100  A    between atoms: _268  and  _270
REMARK  101  A    between atoms: _270  and  _271
REMARK  102  A    between atoms: _270  and  _273
REMARK  103  A    between atoms: _273  and  _274
REMARK  104  A    between atoms: _277  and  _279
REMARK  105  A    between atoms: _279  and  _280
REMARK  106  A    between atoms: _279  and  _282
REMARK  107  A    between atoms: _282  and  _283
REMARK  108  A    between atoms: _283  and  _284
REMARK  109  A    between atoms: _284  and  ZN_357
REMARK  110  A    between atoms: _286  and  _288
REMARK  111  A    between atoms: _288  and  _289
REMARK  112  A    between atoms: _288  and  _291
REMARK  113  A    between atoms: _291  and  _292
REMARK  114  A    between atoms: _294  and  _296
REMARK  115  A    between atoms: _296  and  _297
REMARK  116  A    between atoms: _301  and  _302
REMARK  117  A    between atoms: _307  and  _309
REMARK  118  A    between atoms: _309  and  _310
REMARK  119  A    between atoms: _309  and  _312
REMARK  120  A    between atoms: _312  and  _313
REMARK  121  A    between atoms: _318  and  _320
REMARK  122  A    between atoms: _320  and  _321
REMARK  123  A    between atoms: _320  and  _323
REMARK  124  A    between atoms: _323  and  _324
REMARK  125  A    between atoms: _324  and  _325
REMARK  126  A    between atoms: _325  and  _326
REMARK  127  A    between atoms: _326  and  _327
REMARK  128  A    between atoms: _331  and  _333
REMARK  129  A    between atoms: _333  and  _334
REMARK  130  A    between atoms: _333  and  _336
REMARK  131  A    between atoms: _338  and  _340
REMARK  132  A    between atoms: _340  and  _341
REMARK  133  A    between atoms: _344  and  _346
REMARK  134  A    between atoms: _346  and  _347
REMARK  135  A    between atoms: _349  and  _351
REMARK  136  A    between atoms: _351  and  _352
REMARK  137  A    between atoms: _351  and  _354
REMARK                            x       y       z     vdW  Elec       q    Type
REMARK                         _______ _______ _______ _____ _____    ______ ____
ROOT
ATOM      1  O   HOH     1      25.262  48.732  72.330  0.00  0.00    +0.000 OA
ENDROOT
TORSDOF 0
REMARK  Name = ../refined-set-2016/2eg8/2eg8_pocket.pdb
REMARK  137 active torsions:
REMARK  status: ('A' for Active; 'I' for Inactive)
REMARK    1  A    between atoms: _1  and  _3
REMARK    2  A    between atoms: _14  and  _17
REMARK    3  A    between atoms: _17  and  _18
REMARK    4  A    between atoms: _23  and  _24
REMARK    5  A    between atoms: _32  and  _34
REMARK    6  A    between atoms: _34  and  _35
REMARK    7  A    between atoms: _34  and  _37
REMARK    8  A    between atoms: _37  and  _38
REMARK    9  A    between atoms: _41  and  _43
REMARK   10  A    between atoms: _43  and  _44
REMARK   11  A    between atoms: _43  and  _46
REMARK   12  A    between atoms: _46  and  _47
REMARK   13  A    between atoms: _47  and  _48
REMARK   14  A    between atoms: _48  and  _49
REMARK   15  A    between atoms: _58  and  _60
REMARK   16  A    between atoms: _60  and  _61
REMARK   17  A    between atoms: _60  and  _63
REMARK   18  A    between atoms: _63  and  _64
REMARK   19  A    between atoms: _64  and  _65
REMARK   20  A    between atoms: _68  and  _69
REMARK   21  A    between atoms: _74  and  _76
REMARK   22  A    between atoms: _76  and  _77
REMARK   23  A    between atoms: _76  and  _79
REMARK   24  A    between atoms: _79  and  _80
REMARK   25  A    between atoms: _85  and  _87
REMARK   26  A    between atoms: _87  and  _88
REMARK   27  A    between atoms: _87  and  _90
REMARK   28  A    between atoms: _90  and  _91
REMARK   29  A    between atoms: _94  and  _96
REMARK   30  A    between atoms: _96  and  _97
REMARK   31  A    between atoms: _96  and  _99
REMARK   32  A    between atoms: _99  and  _100
REMARK   33  A    between atoms: _105  and  _106
REMARK   34  A    between atoms: _108  and  _110
REMARK   35  A    between atoms: _110  and  _111
REMARK   36  A    between atoms: _110  and  _117
REMARK   37  A    between atoms: _111  and  _112
REMARK   38  A    between atoms: _112  and  _113
REMARK   39  A    between atoms: _113  and  _114
REMARK   40  A    between atoms: _114  and  _115
REMARK   41  A    between atoms: _115  and  _119
REMARK   42  A    between atoms: _122  and  _124
REMARK   43  A    between atoms: _124  and  _125
REMARK   44  A    between atoms: _124  and  _127
REMARK   45  A    between atoms: _127  and  _128
REMARK   46  A    between atoms: _133  and  _134
REMARK   47  A    between atoms: _137  and  _138
REMARK   48  A    between atoms: _143  and  _145
REMARK   49  A    between atoms: _145  and  _146
REMARK   50  A    between atoms: _145  and  _148
REMARK   51  A    between atoms: _148  and  _149
REMARK   52  A    between atoms: _150  and  ZN_356
REMARK   53  A    between atoms: _154  and  _156
REMARK   54  A    between atoms: _156  and  _157
REMARK   55  A    between atoms: _159  and  _161
REMARK   56  A    between atoms: _161  and  _162
REMARK   57  A    between atoms: _161  and  _164
REMARK   58  A    between atoms: _164  and  _165
REMARK   59  A    between atoms: _165  and  _166
REMARK   60  A    between atoms: _169  and  _171
REMARK   61  A    between atoms: _171  and  _172
REMARK   62  A    between atoms: _171  and  _174
REMARK   63  A    between atoms: _174  and  _175
REMARK   64  A    between atoms: _175  and  _176
REMARK   65  A    between atoms: _179  and  _181
REMARK   66  A    between atoms: _181  and  _182
REMARK   67  A    between atoms: _181  and  _184
REMARK   68  A    between atoms: _184  and  _185
REMARK   69  A    between atoms: _189  and  ZN_356
REMARK   70  A    between atoms: _190  and  _192
REMARK   71  A    between atoms: _192  and  _193
REMARK   72  A    between atoms: _192  and  _195
REMARK   73  A    between atoms: _195  and  _196
REMARK   74  A    between atoms: _199  and  _201
REMARK   75  A    between atoms: _201  and  _202
REMARK   76  A    between atoms: _201  and  _204
REMARK   77  A    between atoms: _204  and  _205
REMARK   78  A    between atoms: _205  and  _206
REMARK   79  A    between atoms: _211  and  _213
REMARK   80  A    between atoms: _213  and  _214
REMARK   81  A    between atoms: _213  and  _216
REMARK   82  A    between atoms: _216  and  _217
REMARK   83  A    between atoms: _222  and  _224
REMARK   84  A    between atoms: _224  and  _225
REMARK   85  A    between atoms: _224  and  _227
REMARK   86  A    between atoms: _227  and  _228
REMARK   87  A    between atoms: _231  and  _233
REMARK   88  A    between atoms: _233  and  _234
REMARK   89  A    between atoms: _233  and  _236
REMARK   90  A    between atoms: _236  and  _237
REMARK   91  A    between atoms: _242  and  _243
REMARK   92  A    between atoms: _245  and  _247
REMARK   93  A    between atoms: _247  and  _248
REMARK   94  A    between atoms: _247  and  _250
REMARK   95  A    between atoms: _252  and  _254
REMARK   96  A    between atoms: _254  and  _255
REMARK   97  A    between atoms: _254  and  _257
REMARK   98  A    between atoms: _257  and  _258
REMARK   99  A    between atoms: _262  and  _263
REMARK  100  A    between atoms: _268  and  _270
REMARK  101  A    between atoms: _270  and  _271
REMARK  102  A    between atoms: _270  and  _273
REMARK  103  A    between atoms: _273  and  _274
REMARK  104  A    between atoms: _277  and  _279
REMARK  105  A    between atoms: _279  and  _280
REMARK  106  A    between atoms: _279  and  _282
REMARK  107  A    between atoms: _282  and  _283
REMARK  108  A    between atoms: _283  and  _284
REMARK  109  A    between atoms: _284  and  ZN_357
REMARK  110  A    between atoms: _286  and  _288
REMARK  111  A    between atoms: _288  and  _289
REMARK  112  A    between atoms: _288  and  _291
REMARK  113  A    between atoms: _291  and  _292
REMARK  114  A    between atoms: _294  and  _296
REMARK  115  A    between atoms: _296  and  _297
REMARK  116  A    between atoms: _301  and  _302
REMARK  117  A    between atoms: _307  and  _309
REMARK  118  A    between atoms: _309  and  _310
REMARK  119  A    between atoms: _309  and  _312
REMARK  120  A    between atoms: _312  and  _313
REMARK  121  A    between atoms: _318  and  _320
REMARK  122  A    between atoms: _320  and  _321
REMARK  123  A    between atoms: _320  and  _323
REMARK  124  A    between atoms: _323  and  _324
REMARK  125  A    between atoms: _324  and  _325
REMARK  126  A    between atoms: _325  and  _326
REMARK  127  A    between atoms: _326  and  _327
REMARK  128  A    between atoms: _331  and  _333
REMARK  129  A    between atoms: _333  and  _334
REMARK  130  A    between atoms: _333  and  _336
REMARK  131  A    between atoms: _338  and  _340
REMARK  132  A    between atoms: _340  and  _341
REMARK  133  A    between atoms: _344  and  _346
REMARK  134  A    between atoms: _346  and  _347
REMARK  135  A    between atoms: _349  and  _351
REMARK  136  A    between atoms: _351  and  _352
REMARK  137  A    between atoms: _351  and  _354
REMARK                            x       y       z     vdW  Elec       q    Type
REMARK                         _______ _______ _______ _____ _____    ______ ____
ROOT
ATOM      1  O   HOH     1      28.808  32.065  68.779  0.00  0.00    +0.000 OA
ENDROOT
TORSDOF 0
REMARK  Name = ../refined-set-2016/2eg8/2eg8_pocket.pdb
REMARK  137 active torsions:
REMARK  status: ('A' for Active; 'I' for Inactive)
REMARK    1  A    between atoms: _1  and  _3
REMARK    2  A    between atoms: _14  and  _17
REMARK    3  A    between atoms: _17  and  _18
REMARK    4  A    between atoms: _23  and  _24
REMARK    5  A    between atoms: _32  and  _34
REMARK    6  A    between atoms: _34  and  _35
REMARK    7  A    between atoms: _34  and  _37
REMARK    8  A    between atoms: _37  and  _38
REMARK    9  A    between atoms: _41  and  _43
REMARK   10  A    between atoms: _43  and  _44
REMARK   11  A    between atoms: _43  and  _46
REMARK   12  A    between atoms: _46  and  _47
REMARK   13  A    between atoms: _47  and  _48
REMARK   14  A    between atoms: _48  and  _49
REMARK   15  A    between atoms: _58  and  _60
REMARK   16  A    between atoms: _60  and  _61
REMARK   17  A    between atoms: _60  and  _63
REMARK   18  A    between atoms: _63  and  _64
REMARK   19  A    between atoms: _64  and  _65
REMARK   20  A    between atoms: _68  and  _69
REMARK   21  A    between atoms: _74  and  _76
REMARK   22  A    between atoms: _76  and  _77
REMARK   23  A    between atoms: _76  and  _79
REMARK   24  A    between atoms: _79  and  _80
REMARK   25  A    between atoms: _85  and  _87
REMARK   26  A    between atoms: _87  and  _88
REMARK   27  A    between atoms: _87  and  _90
REMARK   28  A    between atoms: _90  and  _91
REMARK   29  A    between atoms: _94  and  _96
REMARK   30  A    between atoms: _96  and  _97
REMARK   31  A    between atoms: _96  and  _99
REMARK   32  A    between atoms: _99  and  _100
REMARK   33  A    between atoms: _105  and  _106
REMARK   34  A    between atoms: _108  and  _110
REMARK   35  A    between atoms: _110  and  _111
REMARK   36  A    between atoms: _110  and  _117
REMARK   37  A    between atoms: _111  and  _112
REMARK   38  A    between atoms: _112  and  _113
REMARK   39  A    between atoms: _113  and  _114
REMARK   40  A    between atoms: _114  and  _115
REMARK   41  A    between atoms: _115  and  _119
REMARK   42  A    between atoms: _122  and  _124
REMARK   43  A    between atoms: _124  and  _125
REMARK   44  A    between atoms: _124  and  _127
REMARK   45  A    between atoms: _127  and  _128
REMARK   46  A    between atoms: _133  and  _134
REMARK   47  A    between atoms: _137  and  _138
REMARK   48  A    between atoms: _143  and  _145
REMARK   49  A    between atoms: _145  and  _146
REMARK   50  A    between atoms: _145  and  _148
REMARK   51  A    between atoms: _148  and  _149
REMARK   52  A    between atoms: _150  and  ZN_356
REMARK   53  A    between atoms: _154  and  _156
REMARK   54  A    between atoms: _156  and  _157
REMARK   55  A    between atoms: _159  and  _161
REMARK   56  A    between atoms: _161  and  _162
REMARK   57  A    between atoms: _161  and  _164
REMARK   58  A    between atoms: _164  and  _165
REMARK   59  A    between atoms: _165  and  _166
REMARK   60  A    between atoms: _169  and  _171
REMARK   61  A    between atoms: _171  and  _172
REMARK   62  A    between atoms: _171  and  _174
REMARK   63  A    between atoms: _174  and  _175
REMARK   64  A    between atoms: _175  and  _176
REMARK   65  A    between atoms: _179  and  _181
REMARK   66  A    between atoms: _181  and  _182
REMARK   67  A    between atoms: _181  and  _184
REMARK   68  A    between atoms: _184  and  _185
REMARK   69  A    between atoms: _189  and  ZN_356
REMARK   70  A    between atoms: _190  and  _192
REMARK   71  A    between atoms: _192  and  _193
REMARK   72  A    between atoms: _192  and  _195
REMARK   73  A    between atoms: _195  and  _196
REMARK   74  A    between atoms: _199  and  _201
REMARK   75  A    between atoms: _201  and  _202
REMARK   76  A    between atoms: _201  and  _204
REMARK   77  A    between atoms: _204  and  _205
REMARK   78  A    between atoms: _205  and  _206
REMARK   79  A    between atoms: _211  and  _213
REMARK   80  A    between atoms: _213  and  _214
REMARK   81  A    between atoms: _213  and  _216
REMARK   82  A    between atoms: _216  and  _217
REMARK   83  A    between atoms: _222  and  _224
REMARK   84  A    between atoms: _224  and  _225
REMARK   85  A    between atoms: _224  and  _227
REMARK   86  A    between atoms: _227  and  _228
REMARK   87  A    between atoms: _231  and  _233
REMARK   88  A    between atoms: _233  and  _234
REMARK   89  A    between atoms: _233  and  _236
REMARK   90  A    between atoms: _236  and  _237
REMARK   91  A    between atoms: _242  and  _243
REMARK   92  A    between atoms: _245  and  _247
REMARK   93  A    between atoms: _247  and  _248
REMARK   94  A    between atoms: _247  and  _250
REMARK   95  A    between atoms: _252  and  _254
REMARK   96  A    between atoms: _254  and  _255
REMARK   97  A    between atoms: _254  and  _257
REMARK   98  A    between atoms: _257  and  _258
REMARK   99  A    between atoms: _262  and  _263
REMARK  100  A    between atoms: _268  and  _270
REMARK  101  A    between atoms: _270  and  _271
REMARK  102  A    between atoms: _270  and  _273
REMARK  103  A    between atoms: _273  and  _274
REMARK  104  A    between atoms: _277  and  _279
REMARK  105  A    between atoms: _279  and  _280
REMARK  106  A    between atoms: _279  and  _282
REMARK  107  A    between atoms: _282  and  _283
REMARK  108  A    between atoms: _283  and  _284
REMARK  109  A    between atoms: _284  and  ZN_357
REMARK  110  A    between atoms: _286  and  _288
REMARK  111  A    between atoms: _288  and  _289
REMARK  112  A    between atoms: _288  and  _291
REMARK  113  A    between atoms: _291  and  _292
REMARK  114  A    between atoms: _294  and  _296
REMARK  115  A    between atoms: _296  and  _297
REMARK  116  A    between atoms: _301  and  _302
REMARK  117  A    between atoms: _307  and  _309
REMARK  118  A    between atoms: _309  and  _310
REMARK  119  A    between atoms: _309  and  _312
REMARK  120  A    between atoms: _312  and  _313
REMARK  121  A    between atoms: _318  and  _320
REMARK  122  A    between atoms: _320  and  _321
REMARK  123  A    between atoms: _320  and  _323
REMARK  124  A    between atoms: _323  and  _324
REMARK  125  A    between atoms: _324  and  _325
REMARK  126  A    between atoms: _325  and  _326
REMARK  127  A    between atoms: _326  and  _327
REMARK  128  A    between atoms: _331  and  _333
REMARK  129  A    between atoms: _333  and  _334
REMARK  130  A    between atoms: _333  and  _336
REMARK  131  A    between atoms: _338  and  _340
REMARK  132  A    between atoms: _340  and  _341
REMARK  133  A    between atoms: _344  and  _346
REMARK  134  A    between atoms: _346  and  _347
REMARK  135  A    between atoms: _349  and  _351
REMARK  136  A    between atoms: _351  and  _352
REMARK  137  A    between atoms: _351  and  _354
REMARK                            x       y       z     vdW  Elec       q    Type
REMARK                         _______ _______ _______ _____ _____    ______ ____
ROOT
ATOM      1  O   HOH     1      27.403  49.824  76.759  0.00  0.00    +0.000 OA
ENDROOT
TORSDOF 0
REMARK  Name = ../refined-set-2016/2eg8/2eg8_pocket.pdb
REMARK  137 active torsions:
REMARK  status: ('A' for Active; 'I' for Inactive)
REMARK    1  A    between atoms: _1  and  _3
REMARK    2  A    between atoms: _14  and  _17
REMARK    3  A    between atoms: _17  and  _18
REMARK    4  A    between atoms: _23  and  _24
REMARK    5  A    between atoms: _32  and  _34
REMARK    6  A    between atoms: _34  and  _35
REMARK    7  A    between atoms: _34  and  _37
REMARK    8  A    between atoms: _37  and  _38
REMARK    9  A    between atoms: _41  and  _43
REMARK   10  A    between atoms: _43  and  _44
REMARK   11  A    between atoms: _43  and  _46
REMARK   12  A    between atoms: _46  and  _47
REMARK   13  A    between atoms: _47  and  _48
REMARK   14  A    between atoms: _48  and  _49
REMARK   15  A    between atoms: _58  and  _60
REMARK   16  A    between atoms: _60  and  _61
REMARK   17  A    between atoms: _60  and  _63
REMARK   18  A    between atoms: _63  and  _64
REMARK   19  A    between atoms: _64  and  _65
REMARK   20  A    between atoms: _68  and  _69
REMARK   21  A    between atoms: _74  and  _76
REMARK   22  A    between atoms: _76  and  _77
REMARK   23  A    between atoms: _76  and  _79
REMARK   24  A    between atoms: _79  and  _80
REMARK   25  A    between atoms: _85  and  _87
REMARK   26  A    between atoms: _87  and  _88
REMARK   27  A    between atoms: _87  and  _90
REMARK   28  A    between atoms: _90  and  _91
REMARK   29  A    between atoms: _94  and  _96
REMARK   30  A    between atoms: _96  and  _97
REMARK   31  A    between atoms: _96  and  _99
REMARK   32  A    between atoms: _99  and  _100
REMARK   33  A    between atoms: _105  and  _106
REMARK   34  A    between atoms: _108  and  _110
REMARK   35  A    between atoms: _110  and  _111
REMARK   36  A    between atoms: _110  and  _117
REMARK   37  A    between atoms: _111  and  _112
REMARK   38  A    between atoms: _112  and  _113
REMARK   39  A    between atoms: _113  and  _114
REMARK   40  A    between atoms: _114  and  _115
REMARK   41  A    between atoms: _115  and  _119
REMARK   42  A    between atoms: _122  and  _124
REMARK   43  A    between atoms: _124  and  _125
REMARK   44  A    between atoms: _124  and  _127
REMARK   45  A    between atoms: _127  and  _128
REMARK   46  A    between atoms: _133  and  _134
REMARK   47  A    between atoms: _137  and  _138
REMARK   48  A    between atoms: _143  and  _145
REMARK   49  A    between atoms: _145  and  _146
REMARK   50  A    between atoms: _145  and  _148
REMARK   51  A    between atoms: _148  and  _149
REMARK   52  A    between atoms: _150  and  ZN_356
REMARK   53  A    between atoms: _154  and  _156
REMARK   54  A    between atoms: _156  and  _157
REMARK   55  A    between atoms: _159  and  _161
REMARK   56  A    between atoms: _161  and  _162
REMARK   57  A    between atoms: _161  and  _164
REMARK   58  A    between atoms: _164  and  _165
REMARK   59  A    between atoms: _165  and  _166
REMARK   60  A    between atoms: _169  and  _171
REMARK   61  A    between atoms: _171  and  _172
REMARK   62  A    between atoms: _171  and  _174
REMARK   63  A    between atoms: _174  and  _175
REMARK   64  A    between atoms: _175  and  _176
REMARK   65  A    between atoms: _179  and  _181
REMARK   66  A    between atoms: _181  and  _182
REMARK   67  A    between atoms: _181  and  _184
REMARK   68  A    between atoms: _184  and  _185
REMARK   69  A    between atoms: _189  and  ZN_356
REMARK   70  A    between atoms: _190  and  _192
REMARK   71  A    between atoms: _192  and  _193
REMARK   72  A    between atoms: _192  and  _195
REMARK   73  A    between atoms: _195  and  _196
REMARK   74  A    between atoms: _199  and  _201
REMARK   75  A    between atoms: _201  and  _202
REMARK   76  A    between atoms: _201  and  _204
REMARK   77  A    between atoms: _204  and  _205
REMARK   78  A    between atoms: _205  and  _206
REMARK   79  A    between atoms: _211  and  _213
REMARK   80  A    between atoms: _213  and  _214
REMARK   81  A    between atoms: _213  and  _216
REMARK   82  A    between atoms: _216  and  _217
REMARK   83  A    between atoms: _222  and  _224
REMARK   84  A    between atoms: _224  and  _225
REMARK   85  A    between atoms: _224  and  _227
REMARK   86  A    between atoms: _227  and  _228
REMARK   87  A    between atoms: _231  and  _233
REMARK   88  A    between atoms: _233  and  _234
REMARK   89  A    between atoms: _233  and  _236
REMARK   90  A    between atoms: _236  and  _237
REMARK   91  A    between atoms: _242  and  _243
REMARK   92  A    between atoms: _245  and  _247
REMARK   93  A    between atoms: _247  and  _248
REMARK   94  A    between atoms: _247  and  _250
REMARK   95  A    between atoms: _252  and  _254
REMARK   96  A    between atoms: _254  and  _255
REMARK   97  A    between atoms: _254  and  _257
REMARK   98  A    between atoms: _257  and  _258
REMARK   99  A    between atoms: _262  and  _263
REMARK  100  A    between atoms: _268  and  _270
REMARK  101  A    between atoms: _270  and  _271
REMARK  102  A    between atoms: _270  and  _273
REMARK  103  A    between atoms: _273  and  _274
REMARK  104  A    between atoms: _277  and  _279
REMARK  105  A    between atoms: _279  and  _280
REMARK  106  A    between atoms: _279  and  _282
REMARK  107  A    between atoms: _282  and  _283
REMARK  108  A    between atoms: _283  and  _284
REMARK  109  A    between atoms: _284  and  ZN_357
REMARK  110  A    between atoms: _286  and  _288
REMARK  111  A    between atoms: _288  and  _289
REMARK  112  A    between atoms: _288  and  _291
REMARK  113  A    between atoms: _291  and  _292
REMARK  114  A    between atoms: _294  and  _296
REMARK  115  A    between atoms: _296  and  _297
REMARK  116  A    between atoms: _301  and  _302
REMARK  117  A    between atoms: _307  and  _309
REMARK  118  A    between atoms: _309  and  _310
REMARK  119  A    between atoms: _309  and  _312
REMARK  120  A    between atoms: _312  and  _313
REMARK  121  A    between atoms: _318  and  _320
REMARK  122  A    between atoms: _320  and  _321
REMARK  123  A    between atoms: _320  and  _323
REMARK  124  A    between atoms: _323  and  _324
REMARK  125  A    between atoms: _324  and  _325
REMARK  126  A    between atoms: _325  and  _326
REMARK  127  A    between atoms: _326  and  _327
REMARK  128  A    between atoms: _331  and  _333
REMARK  129  A    between atoms: _333  and  _334
REMARK  130  A    between atoms: _333  and  _336
REMARK  131  A    between atoms: _338  and  _340
REMARK  132  A    between atoms: _340  and  _341
REMARK  133  A    between atoms: _344  and  _346
REMARK  134  A    between atoms: _346  and  _347
REMARK  135  A    between atoms: _349  and  _351
REMARK  136  A    between atoms: _351  and  _352
REMARK  137  A    between atoms: _351  and  _354
REMARK                            x       y       z     vdW  Elec       q    Type
REMARK                         _______ _______ _______ _____ _____    ______ ____
ROOT
ATOM      1  O   HOH     1      25.932  48.590  74.934  0.00  0.00    +0.000 OA
ENDROOT
TORSDOF 0
REMARK  Name = ../refined-set-2016/2eg8/2eg8_pocket.pdb
REMARK  137 active torsions:
REMARK  status: ('A' for Active; 'I' for Inactive)
REMARK    1  A    between atoms: _1  and  _3
REMARK    2  A    between atoms: _14  and  _17
REMARK    3  A    between atoms: _17  and  _18
REMARK    4  A    between atoms: _23  and  _24
REMARK    5  A    between atoms: _32  and  _34
REMARK    6  A    between atoms: _34  and  _35
REMARK    7  A    between atoms: _34  and  _37
REMARK    8  A    between atoms: _37  and  _38
REMARK    9  A    between atoms: _41  and  _43
REMARK   10  A    between atoms: _43  and  _44
REMARK   11  A    between atoms: _43  and  _46
REMARK   12  A    between atoms: _46  and  _47
REMARK   13  A    between atoms: _47  and  _48
REMARK   14  A    between atoms: _48  and  _49
REMARK   15  A    between atoms: _58  and  _60
REMARK   16  A    between atoms: _60  and  _61
REMARK   17  A    between atoms: _60  and  _63
REMARK   18  A    between atoms: _63  and  _64
REMARK   19  A    between atoms: _64  and  _65
REMARK   20  A    between atoms: _68  and  _69
REMARK   21  A    between atoms: _74  and  _76
REMARK   22  A    between atoms: _76  and  _77
REMARK   23  A    between atoms: _76  and  _79
REMARK   24  A    between atoms: _79  and  _80
REMARK   25  A    between atoms: _85  and  _87
REMARK   26  A    between atoms: _87  and  _88
REMARK   27  A    between atoms: _87  and  _90
REMARK   28  A    between atoms: _90  and  _91
REMARK   29  A    between atoms: _94  and  _96
REMARK   30  A    between atoms: _96  and  _97
REMARK   31  A    between atoms: _96  and  _99
REMARK   32  A    between atoms: _99  and  _100
REMARK   33  A    between atoms: _105  and  _106
REMARK   34  A    between atoms: _108  and  _110
REMARK   35  A    between atoms: _110  and  _111
REMARK   36  A    between atoms: _110  and  _117
REMARK   37  A    between atoms: _111  and  _112
REMARK   38  A    between atoms: _112  and  _113
REMARK   39  A    between atoms: _113  and  _114
REMARK   40  A    between atoms: _114  and  _115
REMARK   41  A    between atoms: _115  and  _119
REMARK   42  A    between atoms: _122  and  _124
REMARK   43  A    between atoms: _124  and  _125
REMARK   44  A    between atoms: _124  and  _127
REMARK   45  A    between atoms: _127  and  _128
REMARK   46  A    between atoms: _133  and  _134
REMARK   47  A    between atoms: _137  and  _138
REMARK   48  A    between atoms: _143  and  _145
REMARK   49  A    between atoms: _145  and  _146
REMARK   50  A    between atoms: _145  and  _148
REMARK   51  A    between atoms: _148  and  _149
REMARK   52  A    between atoms: _150  and  ZN_356
REMARK   53  A    between atoms: _154  and  _156
REMARK   54  A    between atoms: _156  and  _157
REMARK   55  A    between atoms: _159  and  _161
REMARK   56  A    between atoms: _161  and  _162
REMARK   57  A    between atoms: _161  and  _164
REMARK   58  A    between atoms: _164  and  _165
REMARK   59  A    between atoms: _165  and  _166
REMARK   60  A    between atoms: _169  and  _171
REMARK   61  A    between atoms: _171  and  _172
REMARK   62  A    between atoms: _171  and  _174
REMARK   63  A    between atoms: _174  and  _175
REMARK   64  A    between atoms: _175  and  _176
REMARK   65  A    between atoms: _179  and  _181
REMARK   66  A    between atoms: _181  and  _182
REMARK   67  A    between atoms: _181  and  _184
REMARK   68  A    between atoms: _184  and  _185
REMARK   69  A    between atoms: _189  and  ZN_356
REMARK   70  A    between atoms: _190  and  _192
REMARK   71  A    between atoms: _192  and  _193
REMARK   72  A    between atoms: _192  and  _195
REMARK   73  A    between atoms: _195  and  _196
REMARK   74  A    between atoms: _199  and  _201
REMARK   75  A    between atoms: _201  and  _202
REMARK   76  A    between atoms: _201  and  _204
REMARK   77  A    between atoms: _204  and  _205
REMARK   78  A    between atoms: _205  and  _206
REMARK   79  A    between atoms: _211  and  _213
REMARK   80  A    between atoms: _213  and  _214
REMARK   81  A    between atoms: _213  and  _216
REMARK   82  A    between atoms: _216  and  _217
REMARK   83  A    between atoms: _222  and  _224
REMARK   84  A    between atoms: _224  and  _225
REMARK   85  A    between atoms: _224  and  _227
REMARK   86  A    between atoms: _227  and  _228
REMARK   87  A    between atoms: _231  and  _233
REMARK   88  A    between atoms: _233  and  _234
REMARK   89  A    between atoms: _233  and  _236
REMARK   90  A    between atoms: _236  and  _237
REMARK   91  A    between atoms: _242  and  _243
REMARK   92  A    between atoms: _245  and  _247
REMARK   93  A    between atoms: _247  and  _248
REMARK   94  A    between atoms: _247  and  _250
REMARK   95  A    between atoms: _252  and  _254
REMARK   96  A    between atoms: _254  and  _255
REMARK   97  A    between atoms: _254  and  _257
REMARK   98  A    between atoms: _257  and  _258
REMARK   99  A    between atoms: _262  and  _263
REMARK  100  A    between atoms: _268  and  _270
REMARK  101  A    between atoms: _270  and  _271
REMARK  102  A    between atoms: _270  and  _273
REMARK  103  A    between atoms: _273  and  _274
REMARK  104  A    between atoms: _277  and  _279
REMARK  105  A    between atoms: _279  and  _280
REMARK  106  A    between atoms: _279  and  _282
REMARK  107  A    between atoms: _282  and  _283
REMARK  108  A    between atoms: _283  and  _284
REMARK  109  A    between atoms: _284  and  ZN_357
REMARK  110  A    between atoms: _286  and  _288
REMARK  111  A    between atoms: _288  and  _289
REMARK  112  A    between atoms: _288  and  _291
REMARK  113  A    between atoms: _291  and  _292
REMARK  114  A    between atoms: _294  and  _296
REMARK  115  A    between atoms: _296  and  _297
REMARK  116  A    between atoms: _301  and  _302
REMARK  117  A    between atoms: _307  and  _309
REMARK  118  A    between atoms: _309  and  _310
REMARK  119  A    between atoms: _309  and  _312
REMARK  120  A    between atoms: _312  and  _313
REMARK  121  A    between atoms: _318  and  _320
REMARK  122  A    between atoms: _320  and  _321
REMARK  123  A    between atoms: _320  and  _323
REMARK  124  A    between atoms: _323  and  _324
REMARK  125  A    between atoms: _324  and  _325
REMARK  126  A    between atoms: _325  and  _326
REMARK  127  A    between atoms: _326  and  _327
REMARK  128  A    between atoms: _331  and  _333
REMARK  129  A    between atoms: _333  and  _334
REMARK  130  A    between atoms: _333  and  _336
REMARK  131  A    between atoms: _338  and  _340
REMARK  132  A    between atoms: _340  and  _341
REMARK  133  A    between atoms: _344  and  _346
REMARK  134  A    between atoms: _346  and  _347
REMARK  135  A    between atoms: _349  and  _351
REMARK  136  A    between atoms: _351  and  _352
REMARK  137  A    between atoms: _351  and  _354
REMARK                            x       y       z     vdW  Elec       q    Type
REMARK                         _______ _______ _______ _____ _____    ______ ____
ROOT
ATOM      1  O   HOH     1      34.995  35.224  74.620  0.00  0.00    +0.000 OA
ENDROOT
TORSDOF 0
REMARK  Name = ../refined-set-2016/2eg8/2eg8_pocket.pdb
REMARK  137 active torsions:
REMARK  status: ('A' for Active; 'I' for Inactive)
REMARK    1  A    between atoms: _1  and  _3
REMARK    2  A    between atoms: _14  and  _17
REMARK    3  A    between atoms: _17  and  _18
REMARK    4  A    between atoms: _23  and  _24
REMARK    5  A    between atoms: _32  and  _34
REMARK    6  A    between atoms: _34  and  _35
REMARK    7  A    between atoms: _34  and  _37
REMARK    8  A    between atoms: _37  and  _38
REMARK    9  A    between atoms: _41  and  _43
REMARK   10  A    between atoms: _43  and  _44
REMARK   11  A    between atoms: _43  and  _46
REMARK   12  A    between atoms: _46  and  _47
REMARK   13  A    between atoms: _47  and  _48
REMARK   14  A    between atoms: _48  and  _49
REMARK   15  A    between atoms: _58  and  _60
REMARK   16  A    between atoms: _60  and  _61
REMARK   17  A    between atoms: _60  and  _63
REMARK   18  A    between atoms: _63  and  _64
REMARK   19  A    between atoms: _64  and  _65
REMARK   20  A    between atoms: _68  and  _69
REMARK   21  A    between atoms: _74  and  _76
REMARK   22  A    between atoms: _76  and  _77
REMARK   23  A    between atoms: _76  and  _79
REMARK   24  A    between atoms: _79  and  _80
REMARK   25  A    between atoms: _85  and  _87
REMARK   26  A    between atoms: _87  and  _88
REMARK   27  A    between atoms: _87  and  _90
REMARK   28  A    between atoms: _90  and  _91
REMARK   29  A    between atoms: _94  and  _96
REMARK   30  A    between atoms: _96  and  _97
REMARK   31  A    between atoms: _96  and  _99
REMARK   32  A    between atoms: _99  and  _100
REMARK   33  A    between atoms: _105  and  _106
REMARK   34  A    between atoms: _108  and  _110
REMARK   35  A    between atoms: _110  and  _111
REMARK   36  A    between atoms: _110  and  _117
REMARK   37  A    between atoms: _111  and  _112
REMARK   38  A    between atoms: _112  and  _113
REMARK   39  A    between atoms: _113  and  _114
REMARK   40  A    between atoms: _114  and  _115
REMARK   41  A    between atoms: _115  and  _119
REMARK   42  A    between atoms: _122  and  _124
REMARK   43  A    between atoms: _124  and  _125
REMARK   44  A    between atoms: _124  and  _127
REMARK   45  A    between atoms: _127  and  _128
REMARK   46  A    between atoms: _133  and  _134
REMARK   47  A    between atoms: _137  and  _138
REMARK   48  A    between atoms: _143  and  _145
REMARK   49  A    between atoms: _145  and  _146
REMARK   50  A    between atoms: _145  and  _148
REMARK   51  A    between atoms: _148  and  _149
REMARK   52  A    between atoms: _150  and  ZN_356
REMARK   53  A    between atoms: _154  and  _156
REMARK   54  A    between atoms: _156  and  _157
REMARK   55  A    between atoms: _159  and  _161
REMARK   56  A    between atoms: _161  and  _162
REMARK   57  A    between atoms: _161  and  _164
REMARK   58  A    between atoms: _164  and  _165
REMARK   59  A    between atoms: _165  and  _166
REMARK   60  A    between atoms: _169  and  _171
REMARK   61  A    between atoms: _171  and  _172
REMARK   62  A    between atoms: _171  and  _174
REMARK   63  A    between atoms: _174  and  _175
REMARK   64  A    between atoms: _175  and  _176
REMARK   65  A    between atoms: _179  and  _181
REMARK   66  A    between atoms: _181  and  _182
REMARK   67  A    between atoms: _181  and  _184
REMARK   68  A    between atoms: _184  and  _185
REMARK   69  A    between atoms: _189  and  ZN_356
REMARK   70  A    between atoms: _190  and  _192
REMARK   71  A    between atoms: _192  and  _193
REMARK   72  A    between atoms: _192  and  _195
REMARK   73  A    between atoms: _195  and  _196
REMARK   74  A    between atoms: _199  and  _201
REMARK   75  A    between atoms: _201  and  _202
REMARK   76  A    between atoms: _201  and  _204
REMARK   77  A    between atoms: _204  and  _205
REMARK   78  A    between atoms: _205  and  _206
REMARK   79  A    between atoms: _211  and  _213
REMARK   80  A    between atoms: _213  and  _214
REMARK   81  A    between atoms: _213  and  _216
REMARK   82  A    between atoms: _216  and  _217
REMARK   83  A    between atoms: _222  and  _224
REMARK   84  A    between atoms: _224  and  _225
REMARK   85  A    between atoms: _224  and  _227
REMARK   86  A    between atoms: _227  and  _228
REMARK   87  A    between atoms: _231  and  _233
REMARK   88  A    between atoms: _233  and  _234
REMARK   89  A    between atoms: _233  and  _236
REMARK   90  A    between atoms: _236  and  _237
REMARK   91  A    between atoms: _242  and  _243
REMARK   92  A    between atoms: _245  and  _247
REMARK   93  A    between atoms: _247  and  _248
REMARK   94  A    between atoms: _247  and  _250
REMARK   95  A    between atoms: _252  and  _254
REMARK   96  A    between atoms: _254  and  _255
REMARK   97  A    between atoms: _254  and  _257
REMARK   98  A    between atoms: _257  and  _258
REMARK   99  A    between atoms: _262  and  _263
REMARK  100  A    between atoms: _268  and  _270
REMARK  101  A    between atoms: _270  and  _271
REMARK  102  A    between atoms: _270  and  _273
REMARK  103  A    between atoms: _273  and  _274
REMARK  104  A    between atoms: _277  and  _279
REMARK  105  A    between atoms: _279  and  _280
REMARK  106  A    between atoms: _279  and  _282
REMARK  107  A    between atoms: _282  and  _283
REMARK  108  A    between atoms: _283  and  _284
REMARK  109  A    between atoms: _284  and  ZN_357
REMARK  110  A    between atoms: _286  and  _288
REMARK  111  A    between atoms: _288  and  _289
REMARK  112  A    between atoms: _288  and  _291
REMARK  113  A    between atoms: _291  and  _292
REMARK  114  A    between atoms: _294  and  _296
REMARK  115  A    between atoms: _296  and  _297
REMARK  116  A    between atoms: _301  and  _302
REMARK  117  A    between atoms: _307  and  _309
REMARK  118  A    between atoms: _309  and  _310
REMARK  119  A    between atoms: _309  and  _312
REMARK  120  A    between atoms: _312  and  _313
REMARK  121  A    between atoms: _318  and  _320
REMARK  122  A    between atoms: _320  and  _321
REMARK  123  A    between atoms: _320  and  _323
REMARK  124  A    between atoms: _323  and  _324
REMARK  125  A    between atoms: _324  and  _325
REMARK  126  A    between atoms: _325  and  _326
REMARK  127  A    between atoms: _326  and  _327
REMARK  128  A    between atoms: _331  and  _333
REMARK  129  A    between atoms: _333  and  _334
REMARK  130  A    between atoms: _333  and  _336
REMARK  131  A    between atoms: _338  and  _340
REMARK  132  A    between atoms: _340  and  _341
REMARK  133  A    between atoms: _344  and  _346
REMARK  134  A    between atoms: _346  and  _347
REMARK  135  A    between atoms: _349  and  _351
REMARK  136  A    between atoms: _351  and  _352
REMARK  137  A    between atoms: _351  and  _354
REMARK                            x       y       z     vdW  Elec       q    Type
REMARK                         _______ _______ _______ _____ _____    ______ ____
ROOT
ATOM      1  O   HOH     1      29.779  48.921  67.513  0.00  0.00    +0.000 OA
ENDROOT
TORSDOF 0
REMARK  Name = ../refined-set-2016/2eg8/2eg8_pocket.pdb
REMARK  137 active torsions:
REMARK  status: ('A' for Active; 'I' for Inactive)
REMARK    1  A    between atoms: _1  and  _3
REMARK    2  A    between atoms: _14  and  _17
REMARK    3  A    between atoms: _17  and  _18
REMARK    4  A    between atoms: _23  and  _24
REMARK    5  A    between atoms: _32  and  _34
REMARK    6  A    between atoms: _34  and  _35
REMARK    7  A    between atoms: _34  and  _37
REMARK    8  A    between atoms: _37  and  _38
REMARK    9  A    between atoms: _41  and  _43
REMARK   10  A    between atoms: _43  and  _44
REMARK   11  A    between atoms: _43  and  _46
REMARK   12  A    between atoms: _46  and  _47
REMARK   13  A    between atoms: _47  and  _48
REMARK   14  A    between atoms: _48  and  _49
REMARK   15  A    between atoms: _58  and  _60
REMARK   16  A    between atoms: _60  and  _61
REMARK   17  A    between atoms: _60  and  _63
REMARK   18  A    between atoms: _63  and  _64
REMARK   19  A    between atoms: _64  and  _65
REMARK   20  A    between atoms: _68  and  _69
REMARK   21  A    between atoms: _74  and  _76
REMARK   22  A    between atoms: _76  and  _77
REMARK   23  A    between atoms: _76  and  _79
REMARK   24  A    between atoms: _79  and  _80
REMARK   25  A    between atoms: _85  and  _87
REMARK   26  A    between atoms: _87  and  _88
REMARK   27  A    between atoms: _87  and  _90
REMARK   28  A    between atoms: _90  and  _91
REMARK   29  A    between atoms: _94  and  _96
REMARK   30  A    between atoms: _96  and  _97
REMARK   31  A    between atoms: _96  and  _99
REMARK   32  A    between atoms: _99  and  _100
REMARK   33  A    between atoms: _105  and  _106
REMARK   34  A    between atoms: _108  and  _110
REMARK   35  A    between atoms: _110  and  _111
REMARK   36  A    between atoms: _110  and  _117
REMARK   37  A    between atoms: _111  and  _112
REMARK   38  A    between atoms: _112  and  _113
REMARK   39  A    between atoms: _113  and  _114
REMARK   40  A    between atoms: _114  and  _115
REMARK   41  A    between atoms: _115  and  _119
REMARK   42  A    between atoms: _122  and  _124
REMARK   43  A    between atoms: _124  and  _125
REMARK   44  A    between atoms: _124  and  _127
REMARK   45  A    between atoms: _127  and  _128
REMARK   46  A    between atoms: _133  and  _134
REMARK   47  A    between atoms: _137  and  _138
REMARK   48  A    between atoms: _143  and  _145
REMARK   49  A    between atoms: _145  and  _146
REMARK   50  A    between atoms: _145  and  _148
REMARK   51  A    between atoms: _148  and  _149
REMARK   52  A    between atoms: _150  and  ZN_356
REMARK   53  A    between atoms: _154  and  _156
REMARK   54  A    between atoms: _156  and  _157
REMARK   55  A    between atoms: _159  and  _161
REMARK   56  A    between atoms: _161  and  _162
REMARK   57  A    between atoms: _161  and  _164
REMARK   58  A    between atoms: _164  and  _165
REMARK   59  A    between atoms: _165  and  _166
REMARK   60  A    between atoms: _169  and  _171
REMARK   61  A    between atoms: _171  and  _172
REMARK   62  A    between atoms: _171  and  _174
REMARK   63  A    between atoms: _174  and  _175
REMARK   64  A    between atoms: _175  and  _176
REMARK   65  A    between atoms: _179  and  _181
REMARK   66  A    between atoms: _181  and  _182
REMARK   67  A    between atoms: _181  and  _184
REMARK   68  A    between atoms: _184  and  _185
REMARK   69  A    between atoms: _189  and  ZN_356
REMARK   70  A    between atoms: _190  and  _192
REMARK   71  A    between atoms: _192  and  _193
REMARK   72  A    between atoms: _192  and  _195
REMARK   73  A    between atoms: _195  and  _196
REMARK   74  A    between atoms: _199  and  _201
REMARK   75  A    between atoms: _201  and  _202
REMARK   76  A    between atoms: _201  and  _204
REMARK   77  A    between atoms: _204  and  _205
REMARK   78  A    between atoms: _205  and  _206
REMARK   79  A    between atoms: _211  and  _213
REMARK   80  A    between atoms: _213  and  _214
REMARK   81  A    between atoms: _213  and  _216
REMARK   82  A    between atoms: _216  and  _217
REMARK   83  A    between atoms: _222  and  _224
REMARK   84  A    between atoms: _224  and  _225
REMARK   85  A    between atoms: _224  and  _227
REMARK   86  A    between atoms: _227  and  _228
REMARK   87  A    between atoms: _231  and  _233
REMARK   88  A    between atoms: _233  and  _234
REMARK   89  A    between atoms: _233  and  _236
REMARK   90  A    between atoms: _236  and  _237
REMARK   91  A    between atoms: _242  and  _243
REMARK   92  A    between atoms: _245  and  _247
REMARK   93  A    between atoms: _247  and  _248
REMARK   94  A    between atoms: _247  and  _250
REMARK   95  A    between atoms: _252  and  _254
REMARK   96  A    between atoms: _254  and  _255
REMARK   97  A    between atoms: _254  and  _257
REMARK   98  A    between atoms: _257  and  _258
REMARK   99  A    between atoms: _262  and  _263
REMARK  100  A    between atoms: _268  and  _270
REMARK  101  A    between atoms: _270  and  _271
REMARK  102  A    between atoms: _270  and  _273
REMARK  103  A    between atoms: _273  and  _274
REMARK  104  A    between atoms: _277  and  _279
REMARK  105  A    between atoms: _279  and  _280
REMARK  106  A    between atoms: _279  and  _282
REMARK  107  A    between atoms: _282  and  _283
REMARK  108  A    between atoms: _283  and  _284
REMARK  109  A    between atoms: _284  and  ZN_357
REMARK  110  A    between atoms: _286  and  _288
REMARK  111  A    between atoms: _288  and  _289
REMARK  112  A    between atoms: _288  and  _291
REMARK  113  A    between atoms: _291  and  _292
REMARK  114  A    between atoms: _294  and  _296
REMARK  115  A    between atoms: _296  and  _297
REMARK  116  A    between atoms: _301  and  _302
REMARK  117  A    between atoms: _307  and  _309
REMARK  118  A    between atoms: _309  and  _310
REMARK  119  A    between atoms: _309  and  _312
REMARK  120  A    between atoms: _312  and  _313
REMARK  121  A    between atoms: _318  and  _320
REMARK  122  A    between atoms: _320  and  _321
REMARK  123  A    between atoms: _320  and  _323
REMARK  124  A    between atoms: _323  and  _324
REMARK  125  A    between atoms: _324  and  _325
REMARK  126  A    between atoms: _325  and  _326
REMARK  127  A    between atoms: _326  and  _327
REMARK  128  A    between atoms: _331  and  _333
REMARK  129  A    between atoms: _333  and  _334
REMARK  130  A    between atoms: _333  and  _336
REMARK  131  A    between atoms: _338  and  _340
REMARK  132  A    between atoms: _340  and  _341
REMARK  133  A    between atoms: _344  and  _346
REMARK  134  A    between atoms: _346  and  _347
REMARK  135  A    between atoms: _349  and  _351
REMARK  136  A    between atoms: _351  and  _352
REMARK  137  A    between atoms: _351  and  _354
REMARK                            x       y       z     vdW  Elec       q    Type
REMARK                         _______ _______ _______ _____ _____    ______ ____
ROOT
ATOM      1  O   HOH     1      22.860  31.241  72.911  0.00  0.00    +0.000 OA
ENDROOT
TORSDOF 0
REMARK  Name = ../refined-set-2016/2eg8/2eg8_pocket.pdb
REMARK  137 active torsions:
REMARK  status: ('A' for Active; 'I' for Inactive)
REMARK    1  A    between atoms: _1  and  _3
REMARK    2  A    between atoms: _14  and  _17
REMARK    3  A    between atoms: _17  and  _18
REMARK    4  A    between atoms: _23  and  _24
REMARK    5  A    between atoms: _32  and  _34
REMARK    6  A    between atoms: _34  and  _35
REMARK    7  A    between atoms: _34  and  _37
REMARK    8  A    between atoms: _37  and  _38
REMARK    9  A    between atoms: _41  and  _43
REMARK   10  A    between atoms: _43  and  _44
REMARK   11  A    between atoms: _43  and  _46
REMARK   12  A    between atoms: _46  and  _47
REMARK   13  A    between atoms: _47  and  _48
REMARK   14  A    between atoms: _48  and  _49
REMARK   15  A    between atoms: _58  and  _60
REMARK   16  A    between atoms: _60  and  _61
REMARK   17  A    between atoms: _60  and  _63
REMARK   18  A    between atoms: _63  and  _64
REMARK   19  A    between atoms: _64  and  _65
REMARK   20  A    between atoms: _68  and  _69
REMARK   21  A    between atoms: _74  and  _76
REMARK   22  A    between atoms: _76  and  _77
REMARK   23  A    between atoms: _76  and  _79
REMARK   24  A    between atoms: _79  and  _80
REMARK   25  A    between atoms: _85  and  _87
REMARK   26  A    between atoms: _87  and  _88
REMARK   27  A    between atoms: _87  and  _90
REMARK   28  A    between atoms: _90  and  _91
REMARK   29  A    between atoms: _94  and  _96
REMARK   30  A    between atoms: _96  and  _97
REMARK   31  A    between atoms: _96  and  _99
REMARK   32  A    between atoms: _99  and  _100
REMARK   33  A    between atoms: _105  and  _106
REMARK   34  A    between atoms: _108  and  _110
REMARK   35  A    between atoms: _110  and  _111
REMARK   36  A    between atoms: _110  and  _117
REMARK   37  A    between atoms: _111  and  _112
REMARK   38  A    between atoms: _112  and  _113
REMARK   39  A    between atoms: _113  and  _114
REMARK   40  A    between atoms: _114  and  _115
REMARK   41  A    between atoms: _115  and  _119
REMARK   42  A    between atoms: _122  and  _124
REMARK   43  A    between atoms: _124  and  _125
REMARK   44  A    between atoms: _124  and  _127
REMARK   45  A    between atoms: _127  and  _128
REMARK   46  A    between atoms: _133  and  _134
REMARK   47  A    between atoms: _137  and  _138
REMARK   48  A    between atoms: _143  and  _145
REMARK   49  A    between atoms: _145  and  _146
REMARK   50  A    between atoms: _145  and  _148
REMARK   51  A    between atoms: _148  and  _149
REMARK   52  A    between atoms: _150  and  ZN_356
REMARK   53  A    between atoms: _154  and  _156
REMARK   54  A    between atoms: _156  and  _157
REMARK   55  A    between atoms: _159  and  _161
REMARK   56  A    between atoms: _161  and  _162
REMARK   57  A    between atoms: _161  and  _164
REMARK   58  A    between atoms: _164  and  _165
REMARK   59  A    between atoms: _165  and  _166
REMARK   60  A    between atoms: _169  and  _171
REMARK   61  A    between atoms: _171  and  _172
REMARK   62  A    between atoms: _171  and  _174
REMARK   63  A    between atoms: _174  and  _175
REMARK   64  A    between atoms: _175  and  _176
REMARK   65  A    between atoms: _179  and  _181
REMARK   66  A    between atoms: _181  and  _182
REMARK   67  A    between atoms: _181  and  _184
REMARK   68  A    between atoms: _184  and  _185
REMARK   69  A    between atoms: _189  and  ZN_356
REMARK   70  A    between atoms: _190  and  _192
REMARK   71  A    between atoms: _192  and  _193
REMARK   72  A    between atoms: _192  and  _195
REMARK   73  A    between atoms: _195  and  _196
REMARK   74  A    between atoms: _199  and  _201
REMARK   75  A    between atoms: _201  and  _202
REMARK   76  A    between atoms: _201  and  _204
REMARK   77  A    between atoms: _204  and  _205
REMARK   78  A    between atoms: _205  and  _206
REMARK   79  A    between atoms: _211  and  _213
REMARK   80  A    between atoms: _213  and  _214
REMARK   81  A    between atoms: _213  and  _216
REMARK   82  A    between atoms: _216  and  _217
REMARK   83  A    between atoms: _222  and  _224
REMARK   84  A    between atoms: _224  and  _225
REMARK   85  A    between atoms: _224  and  _227
REMARK   86  A    between atoms: _227  and  _228
REMARK   87  A    between atoms: _231  and  _233
REMARK   88  A    between atoms: _233  and  _234
REMARK   89  A    between atoms: _233  and  _236
REMARK   90  A    between atoms: _236  and  _237
REMARK   91  A    between atoms: _242  and  _243
REMARK   92  A    between atoms: _245  and  _247
REMARK   93  A    between atoms: _247  and  _248
REMARK   94  A    between atoms: _247  and  _250
REMARK   95  A    between atoms: _252  and  _254
REMARK   96  A    between atoms: _254  and  _255
REMARK   97  A    between atoms: _254  and  _257
REMARK   98  A    between atoms: _257  and  _258
REMARK   99  A    between atoms: _262  and  _263
REMARK  100  A    between atoms: _268  and  _270
REMARK  101  A    between atoms: _270  and  _271
REMARK  102  A    between atoms: _270  and  _273
REMARK  103  A    between atoms: _273  and  _274
REMARK  104  A    between atoms: _277  and  _279
REMARK  105  A    between atoms: _279  and  _280
REMARK  106  A    between atoms: _279  and  _282
REMARK  107  A    between atoms: _282  and  _283
REMARK  108  A    between atoms: _283  and  _284
REMARK  109  A    between atoms: _284  and  ZN_357
REMARK  110  A    between atoms: _286  and  _288
REMARK  111  A    between atoms: _288  and  _289
REMARK  112  A    between atoms: _288  and  _291
REMARK  113  A    between atoms: _291  and  _292
REMARK  114  A    between atoms: _294  and  _296
REMARK  115  A    between atoms: _296  and  _297
REMARK  116  A    between atoms: _301  and  _302
REMARK  117  A    between atoms: _307  and  _309
REMARK  118  A    between atoms: _309  and  _310
REMARK  119  A    between atoms: _309  and  _312
REMARK  120  A    between atoms: _312  and  _313
REMARK  121  A    between atoms: _318  and  _320
REMARK  122  A    between atoms: _320  and  _321
REMARK  123  A    between atoms: _320  and  _323
REMARK  124  A    between atoms: _323  and  _324
REMARK  125  A    between atoms: _324  and  _325
REMARK  126  A    between atoms: _325  and  _326
REMARK  127  A    between atoms: _326  and  _327
REMARK  128  A    between atoms: _331  and  _333
REMARK  129  A    between atoms: _333  and  _334
REMARK  130  A    between atoms: _333  and  _336
REMARK  131  A    between atoms: _338  and  _340
REMARK  132  A    between atoms: _340  and  _341
REMARK  133  A    between atoms: _344  and  _346
REMARK  134  A    between atoms: _346  and  _347
REMARK  135  A    between atoms: _349  and  _351
REMARK  136  A    between atoms: _351  and  _352
REMARK  137  A    between atoms: _351  and  _354
REMARK                            x       y       z     vdW  Elec       q    Type
REMARK                         _______ _______ _______ _____ _____    ______ ____
ROOT
ATOM      1  O   HOH     1      23.592  50.950  71.545  0.00  0.00    +0.000 OA
ENDROOT
TORSDOF 0
REMARK  Name = ../refined-set-2016/2eg8/2eg8_pocket.pdb
REMARK  137 active torsions:
REMARK  status: ('A' for Active; 'I' for Inactive)
REMARK    1  A    between atoms: _1  and  _3
REMARK    2  A    between atoms: _14  and  _17
REMARK    3  A    between atoms: _17  and  _18
REMARK    4  A    between atoms: _23  and  _24
REMARK    5  A    between atoms: _32  and  _34
REMARK    6  A    between atoms: _34  and  _35
REMARK    7  A    between atoms: _34  and  _37
REMARK    8  A    between atoms: _37  and  _38
REMARK    9  A    between atoms: _41  and  _43
REMARK   10  A    between atoms: _43  and  _44
REMARK   11  A    between atoms: _43  and  _46
REMARK   12  A    between atoms: _46  and  _47
REMARK   13  A    between atoms: _47  and  _48
REMARK   14  A    between atoms: _48  and  _49
REMARK   15  A    between atoms: _58  and  _60
REMARK   16  A    between atoms: _60  and  _61
REMARK   17  A    between atoms: _60  and  _63
REMARK   18  A    between atoms: _63  and  _64
REMARK   19  A    between atoms: _64  and  _65
REMARK   20  A    between atoms: _68  and  _69
REMARK   21  A    between atoms: _74  and  _76
REMARK   22  A    between atoms: _76  and  _77
REMARK   23  A    between atoms: _76  and  _79
REMARK   24  A    between atoms: _79  and  _80
REMARK   25  A    between atoms: _85  and  _87
REMARK   26  A    between atoms: _87  and  _88
REMARK   27  A    between atoms: _87  and  _90
REMARK   28  A    between atoms: _90  and  _91
REMARK   29  A    between atoms: _94  and  _96
REMARK   30  A    between atoms: _96  and  _97
REMARK   31  A    between atoms: _96  and  _99
REMARK   32  A    between atoms: _99  and  _100
REMARK   33  A    between atoms: _105  and  _106
REMARK   34  A    between atoms: _108  and  _110
REMARK   35  A    between atoms: _110  and  _111
REMARK   36  A    between atoms: _110  and  _117
REMARK   37  A    between atoms: _111  and  _112
REMARK   38  A    between atoms: _112  and  _113
REMARK   39  A    between atoms: _113  and  _114
REMARK   40  A    between atoms: _114  and  _115
REMARK   41  A    between atoms: _115  and  _119
REMARK   42  A    between atoms: _122  and  _124
REMARK   43  A    between atoms: _124  and  _125
REMARK   44  A    between atoms: _124  and  _127
REMARK   45  A    between atoms: _127  and  _128
REMARK   46  A    between atoms: _133  and  _134
REMARK   47  A    between atoms: _137  and  _138
REMARK   48  A    between atoms: _143  and  _145
REMARK   49  A    between atoms: _145  and  _146
REMARK   50  A    between atoms: _145  and  _148
REMARK   51  A    between atoms: _148  and  _149
REMARK   52  A    between atoms: _150  and  ZN_356
REMARK   53  A    between atoms: _154  and  _156
REMARK   54  A    between atoms: _156  and  _157
REMARK   55  A    between atoms: _159  and  _161
REMARK   56  A    between atoms: _161  and  _162
REMARK   57  A    between atoms: _161  and  _164
REMARK   58  A    between atoms: _164  and  _165
REMARK   59  A    between atoms: _165  and  _166
REMARK   60  A    between atoms: _169  and  _171
REMARK   61  A    between atoms: _171  and  _172
REMARK   62  A    between atoms: _171  and  _174
REMARK   63  A    between atoms: _174  and  _175
REMARK   64  A    between atoms: _175  and  _176
REMARK   65  A    between atoms: _179  and  _181
REMARK   66  A    between atoms: _181  and  _182
REMARK   67  A    between atoms: _181  and  _184
REMARK   68  A    between atoms: _184  and  _185
REMARK   69  A    between atoms: _189  and  ZN_356
REMARK   70  A    between atoms: _190  and  _192
REMARK   71  A    between atoms: _192  and  _193
REMARK   72  A    between atoms: _192  and  _195
REMARK   73  A    between atoms: _195  and  _196
REMARK   74  A    between atoms: _199  and  _201
REMARK   75  A    between atoms: _201  and  _202
REMARK   76  A    between atoms: _201  and  _204
REMARK   77  A    between atoms: _204  and  _205
REMARK   78  A    between atoms: _205  and  _206
REMARK   79  A    between atoms: _211  and  _213
REMARK   80  A    between atoms: _213  and  _214
REMARK   81  A    between atoms: _213  and  _216
REMARK   82  A    between atoms: _216  and  _217
REMARK   83  A    between atoms: _222  and  _224
REMARK   84  A    between atoms: _224  and  _225
REMARK   85  A    between atoms: _224  and  _227
REMARK   86  A    between atoms: _227  and  _228
REMARK   87  A    between atoms: _231  and  _233
REMARK   88  A    between atoms: _233  and  _234
REMARK   89  A    between atoms: _233  and  _236
REMARK   90  A    between atoms: _236  and  _237
REMARK   91  A    between atoms: _242  and  _243
REMARK   92  A    between atoms: _245  and  _247
REMARK   93  A    between atoms: _247  and  _248
REMARK   94  A    between atoms: _247  and  _250
REMARK   95  A    between atoms: _252  and  _254
REMARK   96  A    between atoms: _254  and  _255
REMARK   97  A    between atoms: _254  and  _257
REMARK   98  A    between atoms: _257  and  _258
REMARK   99  A    between atoms: _262  and  _263
REMARK  100  A    between atoms: _268  and  _270
REMARK  101  A    between atoms: _270  and  _271
REMARK  102  A    between atoms: _270  and  _273
REMARK  103  A    between atoms: _273  and  _274
REMARK  104  A    between atoms: _277  and  _279
REMARK  105  A    between atoms: _279  and  _280
REMARK  106  A    between atoms: _279  and  _282
REMARK  107  A    between atoms: _282  and  _283
REMARK  108  A    between atoms: _283  and  _284
REMARK  109  A    between atoms: _284  and  ZN_357
REMARK  110  A    between atoms: _286  and  _288
REMARK  111  A    between atoms: _288  and  _289
REMARK  112  A    between atoms: _288  and  _291
REMARK  113  A    between atoms: _291  and  _292
REMARK  114  A    between atoms: _294  and  _296
REMARK  115  A    between atoms: _296  and  _297
REMARK  116  A    between atoms: _301  and  _302
REMARK  117  A    between atoms: _307  and  _309
REMARK  118  A    between atoms: _309  and  _310
REMARK  119  A    between atoms: _309  and  _312
REMARK  120  A    between atoms: _312  and  _313
REMARK  121  A    between atoms: _318  and  _320
REMARK  122  A    between atoms: _320  and  _321
REMARK  123  A    between atoms: _320  and  _323
REMARK  124  A    between atoms: _323  and  _324
REMARK  125  A    between atoms: _324  and  _325
REMARK  126  A    between atoms: _325  and  _326
REMARK  127  A    between atoms: _326  and  _327
REMARK  128  A    between atoms: _331  and  _333
REMARK  129  A    between atoms: _333  and  _334
REMARK  130  A    between atoms: _333  and  _336
REMARK  131  A    between atoms: _338  and  _340
REMARK  132  A    between atoms: _340  and  _341
REMARK  133  A    between atoms: _344  and  _346
REMARK  134  A    between atoms: _346  and  _347
REMARK  135  A    between atoms: _349  and  _351
REMARK  136  A    between atoms: _351  and  _352
REMARK  137  A    between atoms: _351  and  _354
REMARK                            x       y       z     vdW  Elec       q    Type
REMARK                         _______ _______ _______ _____ _____    ______ ____
ROOT
ATOM      1  O   HOH     1      30.931  44.824  67.692  0.00  0.00    +0.000 OA
ENDROOT
TORSDOF 0
REMARK  Name = ../refined-set-2016/2eg8/2eg8_pocket.pdb
REMARK  137 active torsions:
REMARK  status: ('A' for Active; 'I' for Inactive)
REMARK    1  A    between atoms: _1  and  _3
REMARK    2  A    between atoms: _14  and  _17
REMARK    3  A    between atoms: _17  and  _18
REMARK    4  A    between atoms: _23  and  _24
REMARK    5  A    between atoms: _32  and  _34
REMARK    6  A    between atoms: _34  and  _35
REMARK    7  A    between atoms: _34  and  _37
REMARK    8  A    between atoms: _37  and  _38
REMARK    9  A    between atoms: _41  and  _43
REMARK   10  A    between atoms: _43  and  _44
REMARK   11  A    between atoms: _43  and  _46
REMARK   12  A    between atoms: _46  and  _47
REMARK   13  A    between atoms: _47  and  _48
REMARK   14  A    between atoms: _48  and  _49
REMARK   15  A    between atoms: _58  and  _60
REMARK   16  A    between atoms: _60  and  _61
REMARK   17  A    between atoms: _60  and  _63
REMARK   18  A    between atoms: _63  and  _64
REMARK   19  A    between atoms: _64  and  _65
REMARK   20  A    between atoms: _68  and  _69
REMARK   21  A    between atoms: _74  and  _76
REMARK   22  A    between atoms: _76  and  _77
REMARK   23  A    between atoms: _76  and  _79
REMARK   24  A    between atoms: _79  and  _80
REMARK   25  A    between atoms: _85  and  _87
REMARK   26  A    between atoms: _87  and  _88
REMARK   27  A    between atoms: _87  and  _90
REMARK   28  A    between atoms: _90  and  _91
REMARK   29  A    between atoms: _94  and  _96
REMARK   30  A    between atoms: _96  and  _97
REMARK   31  A    between atoms: _96  and  _99
REMARK   32  A    between atoms: _99  and  _100
REMARK   33  A    between atoms: _105  and  _106
REMARK   34  A    between atoms: _108  and  _110
REMARK   35  A    between atoms: _110  and  _111
REMARK   36  A    between atoms: _110  and  _117
REMARK   37  A    between atoms: _111  and  _112
REMARK   38  A    between atoms: _112  and  _113
REMARK   39  A    between atoms: _113  and  _114
REMARK   40  A    between atoms: _114  and  _115
REMARK   41  A    between atoms: _115  and  _119
REMARK   42  A    between atoms: _122  and  _124
REMARK   43  A    between atoms: _124  and  _125
REMARK   44  A    between atoms: _124  and  _127
REMARK   45  A    between atoms: _127  and  _128
REMARK   46  A    between atoms: _133  and  _134
REMARK   47  A    between atoms: _137  and  _138
REMARK   48  A    between atoms: _143  and  _145
REMARK   49  A    between atoms: _145  and  _146
REMARK   50  A    between atoms: _145  and  _148
REMARK   51  A    between atoms: _148  and  _149
REMARK   52  A    between atoms: _150  and  ZN_356
REMARK   53  A    between atoms: _154  and  _156
REMARK   54  A    between atoms: _156  and  _157
REMARK   55  A    between atoms: _159  and  _161
REMARK   56  A    between atoms: _161  and  _162
REMARK   57  A    between atoms: _161  and  _164
REMARK   58  A    between atoms: _164  and  _165
REMARK   59  A    between atoms: _165  and  _166
REMARK   60  A    between atoms: _169  and  _171
REMARK   61  A    between atoms: _171  and  _172
REMARK   62  A    between atoms: _171  and  _174
REMARK   63  A    between atoms: _174  and  _175
REMARK   64  A    between atoms: _175  and  _176
REMARK   65  A    between atoms: _179  and  _181
REMARK   66  A    between atoms: _181  and  _182
REMARK   67  A    between atoms: _181  and  _184
REMARK   68  A    between atoms: _184  and  _185
REMARK   69  A    between atoms: _189  and  ZN_356
REMARK   70  A    between atoms: _190  and  _192
REMARK   71  A    between atoms: _192  and  _193
REMARK   72  A    between atoms: _192  and  _195
REMARK   73  A    between atoms: _195  and  _196
REMARK   74  A    between atoms: _199  and  _201
REMARK   75  A    between atoms: _201  and  _202
REMARK   76  A    between atoms: _201  and  _204
REMARK   77  A    between atoms: _204  and  _205
REMARK   78  A    between atoms: _205  and  _206
REMARK   79  A    between atoms: _211  and  _213
REMARK   80  A    between atoms: _213  and  _214
REMARK   81  A    between atoms: _213  and  _216
REMARK   82  A    between atoms: _216  and  _217
REMARK   83  A    between atoms: _222  and  _224
REMARK   84  A    between atoms: _224  and  _225
REMARK   85  A    between atoms: _224  and  _227
REMARK   86  A    between atoms: _227  and  _228
REMARK   87  A    between atoms: _231  and  _233
REMARK   88  A    between atoms: _233  and  _234
REMARK   89  A    between atoms: _233  and  _236
REMARK   90  A    between atoms: _236  and  _237
REMARK   91  A    between atoms: _242  and  _243
REMARK   92  A    between atoms: _245  and  _247
REMARK   93  A    between atoms: _247  and  _248
REMARK   94  A    between atoms: _247  and  _250
REMARK   95  A    between atoms: _252  and  _254
REMARK   96  A    between atoms: _254  and  _255
REMARK   97  A    between atoms: _254  and  _257
REMARK   98  A    between atoms: _257  and  _258
REMARK   99  A    between atoms: _262  and  _263
REMARK  100  A    between atoms: _268  and  _270
REMARK  101  A    between atoms: _270  and  _271
REMARK  102  A    between atoms: _270  and  _273
REMARK  103  A    between atoms: _273  and  _274
REMARK  104  A    between atoms: _277  and  _279
REMARK  105  A    between atoms: _279  and  _280
REMARK  106  A    between atoms: _279  and  _282
REMARK  107  A    between atoms: _282  and  _283
REMARK  108  A    between atoms: _283  and  _284
REMARK  109  A    between atoms: _284  and  ZN_357
REMARK  110  A    between atoms: _286  and  _288
REMARK  111  A    between atoms: _288  and  _289
REMARK  112  A    between atoms: _288  and  _291
REMARK  113  A    between atoms: _291  and  _292
REMARK  114  A    between atoms: _294  and  _296
REMARK  115  A    between atoms: _296  and  _297
REMARK  116  A    between atoms: _301  and  _302
REMARK  117  A    between atoms: _307  and  _309
REMARK  118  A    between atoms: _309  and  _310
REMARK  119  A    between atoms: _309  and  _312
REMARK  120  A    between atoms: _312  and  _313
REMARK  121  A    between atoms: _318  and  _320
REMARK  122  A    between atoms: _320  and  _321
REMARK  123  A    between atoms: _320  and  _323
REMARK  124  A    between atoms: _323  and  _324
REMARK  125  A    between atoms: _324  and  _325
REMARK  126  A    between atoms: _325  and  _326
REMARK  127  A    between atoms: _326  and  _327
REMARK  128  A    between atoms: _331  and  _333
REMARK  129  A    between atoms: _333  and  _334
REMARK  130  A    between atoms: _333  and  _336
REMARK  131  A    between atoms: _338  and  _340
REMARK  132  A    between atoms: _340  and  _341
REMARK  133  A    between atoms: _344  and  _346
REMARK  134  A    between atoms: _346  and  _347
REMARK  135  A    between atoms: _349  and  _351
REMARK  136  A    between atoms: _351  and  _352
REMARK  137  A    between atoms: _351  and  _354
REMARK                            x       y       z     vdW  Elec       q    Type
REMARK                         _______ _______ _______ _____ _____    ______ ____
ROOT
ATOM      1  O   HOH     1      23.858  38.263  76.787  0.00  0.00    +0.000 OA
ENDROOT
TORSDOF 0
REMARK  Name = ../refined-set-2016/2eg8/2eg8_pocket.pdb
REMARK  137 active torsions:
REMARK  status: ('A' for Active; 'I' for Inactive)
REMARK    1  A    between atoms: _1  and  _3
REMARK    2  A    between atoms: _14  and  _17
REMARK    3  A    between atoms: _17  and  _18
REMARK    4  A    between atoms: _23  and  _24
REMARK    5  A    between atoms: _32  and  _34
REMARK    6  A    between atoms: _34  and  _35
REMARK    7  A    between atoms: _34  and  _37
REMARK    8  A    between atoms: _37  and  _38
REMARK    9  A    between atoms: _41  and  _43
REMARK   10  A    between atoms: _43  and  _44
REMARK   11  A    between atoms: _43  and  _46
REMARK   12  A    between atoms: _46  and  _47
REMARK   13  A    between atoms: _47  and  _48
REMARK   14  A    between atoms: _48  and  _49
REMARK   15  A    between atoms: _58  and  _60
REMARK   16  A    between atoms: _60  and  _61
REMARK   17  A    between atoms: _60  and  _63
REMARK   18  A    between atoms: _63  and  _64
REMARK   19  A    between atoms: _64  and  _65
REMARK   20  A    between atoms: _68  and  _69
REMARK   21  A    between atoms: _74  and  _76
REMARK   22  A    between atoms: _76  and  _77
REMARK   23  A    between atoms: _76  and  _79
REMARK   24  A    between atoms: _79  and  _80
REMARK   25  A    between atoms: _85  and  _87
REMARK   26  A    between atoms: _87  and  _88
REMARK   27  A    between atoms: _87  and  _90
REMARK   28  A    between atoms: _90  and  _91
REMARK   29  A    between atoms: _94  and  _96
REMARK   30  A    between atoms: _96  and  _97
REMARK   31  A    between atoms: _96  and  _99
REMARK   32  A    between atoms: _99  and  _100
REMARK   33  A    between atoms: _105  and  _106
REMARK   34  A    between atoms: _108  and  _110
REMARK   35  A    between atoms: _110  and  _111
REMARK   36  A    between atoms: _110  and  _117
REMARK   37  A    between atoms: _111  and  _112
REMARK   38  A    between atoms: _112  and  _113
REMARK   39  A    between atoms: _113  and  _114
REMARK   40  A    between atoms: _114  and  _115
REMARK   41  A    between atoms: _115  and  _119
REMARK   42  A    between atoms: _122  and  _124
REMARK   43  A    between atoms: _124  and  _125
REMARK   44  A    between atoms: _124  and  _127
REMARK   45  A    between atoms: _127  and  _128
REMARK   46  A    between atoms: _133  and  _134
REMARK   47  A    between atoms: _137  and  _138
REMARK   48  A    between atoms: _143  and  _145
REMARK   49  A    between atoms: _145  and  _146
REMARK   50  A    between atoms: _145  and  _148
REMARK   51  A    between atoms: _148  and  _149
REMARK   52  A    between atoms: _150  and  ZN_356
REMARK   53  A    between atoms: _154  and  _156
REMARK   54  A    between atoms: _156  and  _157
REMARK   55  A    between atoms: _159  and  _161
REMARK   56  A    between atoms: _161  and  _162
REMARK   57  A    between atoms: _161  and  _164
REMARK   58  A    between atoms: _164  and  _165
REMARK   59  A    between atoms: _165  and  _166
REMARK   60  A    between atoms: _169  and  _171
REMARK   61  A    between atoms: _171  and  _172
REMARK   62  A    between atoms: _171  and  _174
REMARK   63  A    between atoms: _174  and  _175
REMARK   64  A    between atoms: _175  and  _176
REMARK   65  A    between atoms: _179  and  _181
REMARK   66  A    between atoms: _181  and  _182
REMARK   67  A    between atoms: _181  and  _184
REMARK   68  A    between atoms: _184  and  _185
REMARK   69  A    between atoms: _189  and  ZN_356
REMARK   70  A    between atoms: _190  and  _192
REMARK   71  A    between atoms: _192  and  _193
REMARK   72  A    between atoms: _192  and  _195
REMARK   73  A    between atoms: _195  and  _196
REMARK   74  A    between atoms: _199  and  _201
REMARK   75  A    between atoms: _201  and  _202
REMARK   76  A    between atoms: _201  and  _204
REMARK   77  A    between atoms: _204  and  _205
REMARK   78  A    between atoms: _205  and  _206
REMARK   79  A    between atoms: _211  and  _213
REMARK   80  A    between atoms: _213  and  _214
REMARK   81  A    between atoms: _213  and  _216
REMARK   82  A    between atoms: _216  and  _217
REMARK   83  A    between atoms: _222  and  _224
REMARK   84  A    between atoms: _224  and  _225
REMARK   85  A    between atoms: _224  and  _227
REMARK   86  A    between atoms: _227  and  _228
REMARK   87  A    between atoms: _231  and  _233
REMARK   88  A    between atoms: _233  and  _234
REMARK   89  A    between atoms: _233  and  _236
REMARK   90  A    between atoms: _236  and  _237
REMARK   91  A    between atoms: _242  and  _243
REMARK   92  A    between atoms: _245  and  _247
REMARK   93  A    between atoms: _247  and  _248
REMARK   94  A    between atoms: _247  and  _250
REMARK   95  A    between atoms: _252  and  _254
REMARK   96  A    between atoms: _254  and  _255
REMARK   97  A    between atoms: _254  and  _257
REMARK   98  A    between atoms: _257  and  _258
REMARK   99  A    between atoms: _262  and  _263
REMARK  100  A    between atoms: _268  and  _270
REMARK  101  A    between atoms: _270  and  _271
REMARK  102  A    between atoms: _270  and  _273
REMARK  103  A    between atoms: _273  and  _274
REMARK  104  A    between atoms: _277  and  _279
REMARK  105  A    between atoms: _279  and  _280
REMARK  106  A    between atoms: _279  and  _282
REMARK  107  A    between atoms: _282  and  _283
REMARK  108  A    between atoms: _283  and  _284
REMARK  109  A    between atoms: _284  and  ZN_357
REMARK  110  A    between atoms: _286  and  _288
REMARK  111  A    between atoms: _288  and  _289
REMARK  112  A    between atoms: _288  and  _291
REMARK  113  A    between atoms: _291  and  _292
REMARK  114  A    between atoms: _294  and  _296
REMARK  115  A    between atoms: _296  and  _297
REMARK  116  A    between atoms: _301  and  _302
REMARK  117  A    between atoms: _307  and  _309
REMARK  118  A    between atoms: _309  and  _310
REMARK  119  A    between atoms: _309  and  _312
REMARK  120  A    between atoms: _312  and  _313
REMARK  121  A    between atoms: _318  and  _320
REMARK  122  A    between atoms: _320  and  _321
REMARK  123  A    between atoms: _320  and  _323
REMARK  124  A    between atoms: _323  and  _324
REMARK  125  A    between atoms: _324  and  _325
REMARK  126  A    between atoms: _325  and  _326
REMARK  127  A    between atoms: _326  and  _327
REMARK  128  A    between atoms: _331  and  _333
REMARK  129  A    between atoms: _333  and  _334
REMARK  130  A    between atoms: _333  and  _336
REMARK  131  A    between atoms: _338  and  _340
REMARK  132  A    between atoms: _340  and  _341
REMARK  133  A    between atoms: _344  and  _346
REMARK  134  A    between atoms: _346  and  _347
REMARK  135  A    between atoms: _349  and  _351
REMARK  136  A    between atoms: _351  and  _352
REMARK  137  A    between atoms: _351  and  _354
REMARK                            x       y       z     vdW  Elec       q    Type
REMARK                         _______ _______ _______ _____ _____    ______ ____
ROOT
ATOM      1  O   HOH     1      29.120  43.923  69.031  0.00  0.00    +0.000 OA
ENDROOT
TORSDOF 0
REMARK  Name = ../refined-set-2016/2eg8/2eg8_pocket.pdb
REMARK  137 active torsions:
REMARK  status: ('A' for Active; 'I' for Inactive)
REMARK    1  A    between atoms: _1  and  _3
REMARK    2  A    between atoms: _14  and  _17
REMARK    3  A    between atoms: _17  and  _18
REMARK    4  A    between atoms: _23  and  _24
REMARK    5  A    between atoms: _32  and  _34
REMARK    6  A    between atoms: _34  and  _35
REMARK    7  A    between atoms: _34  and  _37
REMARK    8  A    between atoms: _37  and  _38
REMARK    9  A    between atoms: _41  and  _43
REMARK   10  A    between atoms: _43  and  _44
REMARK   11  A    between atoms: _43  and  _46
REMARK   12  A    between atoms: _46  and  _47
REMARK   13  A    between atoms: _47  and  _48
REMARK   14  A    between atoms: _48  and  _49
REMARK   15  A    between atoms: _58  and  _60
REMARK   16  A    between atoms: _60  and  _61
REMARK   17  A    between atoms: _60  and  _63
REMARK   18  A    between atoms: _63  and  _64
REMARK   19  A    between atoms: _64  and  _65
REMARK   20  A    between atoms: _68  and  _69
REMARK   21  A    between atoms: _74  and  _76
REMARK   22  A    between atoms: _76  and  _77
REMARK   23  A    between atoms: _76  and  _79
REMARK   24  A    between atoms: _79  and  _80
REMARK   25  A    between atoms: _85  and  _87
REMARK   26  A    between atoms: _87  and  _88
REMARK   27  A    between atoms: _87  and  _90
REMARK   28  A    between atoms: _90  and  _91
REMARK   29  A    between atoms: _94  and  _96
REMARK   30  A    between atoms: _96  and  _97
REMARK   31  A    between atoms: _96  and  _99
REMARK   32  A    between atoms: _99  and  _100
REMARK   33  A    between atoms: _105  and  _106
REMARK   34  A    between atoms: _108  and  _110
REMARK   35  A    between atoms: _110  and  _111
REMARK   36  A    between atoms: _110  and  _117
REMARK   37  A    between atoms: _111  and  _112
REMARK   38  A    between atoms: _112  and  _113
REMARK   39  A    between atoms: _113  and  _114
REMARK   40  A    between atoms: _114  and  _115
REMARK   41  A    between atoms: _115  and  _119
REMARK   42  A    between atoms: _122  and  _124
REMARK   43  A    between atoms: _124  and  _125
REMARK   44  A    between atoms: _124  and  _127
REMARK   45  A    between atoms: _127  and  _128
REMARK   46  A    between atoms: _133  and  _134
REMARK   47  A    between atoms: _137  and  _138
REMARK   48  A    between atoms: _143  and  _145
REMARK   49  A    between atoms: _145  and  _146
REMARK   50  A    between atoms: _145  and  _148
REMARK   51  A    between atoms: _148  and  _149
REMARK   52  A    between atoms: _150  and  ZN_356
REMARK   53  A    between atoms: _154  and  _156
REMARK   54  A    between atoms: _156  and  _157
REMARK   55  A    between atoms: _159  and  _161
REMARK   56  A    between atoms: _161  and  _162
REMARK   57  A    between atoms: _161  and  _164
REMARK   58  A    between atoms: _164  and  _165
REMARK   59  A    between atoms: _165  and  _166
REMARK   60  A    between atoms: _169  and  _171
REMARK   61  A    between atoms: _171  and  _172
REMARK   62  A    between atoms: _171  and  _174
REMARK   63  A    between atoms: _174  and  _175
REMARK   64  A    between atoms: _175  and  _176
REMARK   65  A    between atoms: _179  and  _181
REMARK   66  A    between atoms: _181  and  _182
REMARK   67  A    between atoms: _181  and  _184
REMARK   68  A    between atoms: _184  and  _185
REMARK   69  A    between atoms: _189  and  ZN_356
REMARK   70  A    between atoms: _190  and  _192
REMARK   71  A    between atoms: _192  and  _193
REMARK   72  A    between atoms: _192  and  _195
REMARK   73  A    between atoms: _195  and  _196
REMARK   74  A    between atoms: _199  and  _201
REMARK   75  A    between atoms: _201  and  _202
REMARK   76  A    between atoms: _201  and  _204
REMARK   77  A    between atoms: _204  and  _205
REMARK   78  A    between atoms: _205  and  _206
REMARK   79  A    between atoms: _211  and  _213
REMARK   80  A    between atoms: _213  and  _214
REMARK   81  A    between atoms: _213  and  _216
REMARK   82  A    between atoms: _216  and  _217
REMARK   83  A    between atoms: _222  and  _224
REMARK   84  A    between atoms: _224  and  _225
REMARK   85  A    between atoms: _224  and  _227
REMARK   86  A    between atoms: _227  and  _228
REMARK   87  A    between atoms: _231  and  _233
REMARK   88  A    between atoms: _233  and  _234
REMARK   89  A    between atoms: _233  and  _236
REMARK   90  A    between atoms: _236  and  _237
REMARK   91  A    between atoms: _242  and  _243
REMARK   92  A    between atoms: _245  and  _247
REMARK   93  A    between atoms: _247  and  _248
REMARK   94  A    between atoms: _247  and  _250
REMARK   95  A    between atoms: _252  and  _254
REMARK   96  A    between atoms: _254  and  _255
REMARK   97  A    between atoms: _254  and  _257
REMARK   98  A    between atoms: _257  and  _258
REMARK   99  A    between atoms: _262  and  _263
REMARK  100  A    between atoms: _268  and  _270
REMARK  101  A    between atoms: _270  and  _271
REMARK  102  A    between atoms: _270  and  _273
REMARK  103  A    between atoms: _273  and  _274
REMARK  104  A    between atoms: _277  and  _279
REMARK  105  A    between atoms: _279  and  _280
REMARK  106  A    between atoms: _279  and  _282
REMARK  107  A    between atoms: _282  and  _283
REMARK  108  A    between atoms: _283  and  _284
REMARK  109  A    between atoms: _284  and  ZN_357
REMARK  110  A    between atoms: _286  and  _288
REMARK  111  A    between atoms: _288  and  _289
REMARK  112  A    between atoms: _288  and  _291
REMARK  113  A    between atoms: _291  and  _292
REMARK  114  A    between atoms: _294  and  _296
REMARK  115  A    between atoms: _296  and  _297
REMARK  116  A    between atoms: _301  and  _302
REMARK  117  A    between atoms: _307  and  _309
REMARK  118  A    between atoms: _309  and  _310
REMARK  119  A    between atoms: _309  and  _312
REMARK  120  A    between atoms: _312  and  _313
REMARK  121  A    between atoms: _318  and  _320
REMARK  122  A    between atoms: _320  and  _321
REMARK  123  A    between atoms: _320  and  _323
REMARK  124  A    between atoms: _323  and  _324
REMARK  125  A    between atoms: _324  and  _325
REMARK  126  A    between atoms: _325  and  _326
REMARK  127  A    between atoms: _326  and  _327
REMARK  128  A    between atoms: _331  and  _333
REMARK  129  A    between atoms: _333  and  _334
REMARK  130  A    between atoms: _333  and  _336
REMARK  131  A    between atoms: _338  and  _340
REMARK  132  A    between atoms: _340  and  _341
REMARK  133  A    between atoms: _344  and  _346
REMARK  134  A    between atoms: _346  and  _347
REMARK  135  A    between atoms: _349  and  _351
REMARK  136  A    between atoms: _351  and  _352
REMARK  137  A    between atoms: _351  and  _354
REMARK                            x       y       z     vdW  Elec       q    Type
REMARK                         _______ _______ _______ _____ _____    ______ ____
ROOT
ATOM      1  O   HOH     1      26.584  36.250  76.141  0.00  0.00    +0.000 OA
ENDROOT
TORSDOF 0
REMARK  Name = ../refined-set-2016/2eg8/2eg8_pocket.pdb
REMARK  137 active torsions:
REMARK  status: ('A' for Active; 'I' for Inactive)
REMARK    1  A    between atoms: _1  and  _3
REMARK    2  A    between atoms: _14  and  _17
REMARK    3  A    between atoms: _17  and  _18
REMARK    4  A    between atoms: _23  and  _24
REMARK    5  A    between atoms: _32  and  _34
REMARK    6  A    between atoms: _34  and  _35
REMARK    7  A    between atoms: _34  and  _37
REMARK    8  A    between atoms: _37  and  _38
REMARK    9  A    between atoms: _41  and  _43
REMARK   10  A    between atoms: _43  and  _44
REMARK   11  A    between atoms: _43  and  _46
REMARK   12  A    between atoms: _46  and  _47
REMARK   13  A    between atoms: _47  and  _48
REMARK   14  A    between atoms: _48  and  _49
REMARK   15  A    between atoms: _58  and  _60
REMARK   16  A    between atoms: _60  and  _61
REMARK   17  A    between atoms: _60  and  _63
REMARK   18  A    between atoms: _63  and  _64
REMARK   19  A    between atoms: _64  and  _65
REMARK   20  A    between atoms: _68  and  _69
REMARK   21  A    between atoms: _74  and  _76
REMARK   22  A    between atoms: _76  and  _77
REMARK   23  A    between atoms: _76  and  _79
REMARK   24  A    between atoms: _79  and  _80
REMARK   25  A    between atoms: _85  and  _87
REMARK   26  A    between atoms: _87  and  _88
REMARK   27  A    between atoms: _87  and  _90
REMARK   28  A    between atoms: _90  and  _91
REMARK   29  A    between atoms: _94  and  _96
REMARK   30  A    between atoms: _96  and  _97
REMARK   31  A    between atoms: _96  and  _99
REMARK   32  A    between atoms: _99  and  _100
REMARK   33  A    between atoms: _105  and  _106
REMARK   34  A    between atoms: _108  and  _110
REMARK   35  A    between atoms: _110  and  _111
REMARK   36  A    between atoms: _110  and  _117
REMARK   37  A    between atoms: _111  and  _112
REMARK   38  A    between atoms: _112  and  _113
REMARK   39  A    between atoms: _113  and  _114
REMARK   40  A    between atoms: _114  and  _115
REMARK   41  A    between atoms: _115  and  _119
REMARK   42  A    between atoms: _122  and  _124
REMARK   43  A    between atoms: _124  and  _125
REMARK   44  A    between atoms: _124  and  _127
REMARK   45  A    between atoms: _127  and  _128
REMARK   46  A    between atoms: _133  and  _134
REMARK   47  A    between atoms: _137  and  _138
REMARK   48  A    between atoms: _143  and  _145
REMARK   49  A    between atoms: _145  and  _146
REMARK   50  A    between atoms: _145  and  _148
REMARK   51  A    between atoms: _148  and  _149
REMARK   52  A    between atoms: _150  and  ZN_356
REMARK   53  A    between atoms: _154  and  _156
REMARK   54  A    between atoms: _156  and  _157
REMARK   55  A    between atoms: _159  and  _161
REMARK   56  A    between atoms: _161  and  _162
REMARK   57  A    between atoms: _161  and  _164
REMARK   58  A    between atoms: _164  and  _165
REMARK   59  A    between atoms: _165  and  _166
REMARK   60  A    between atoms: _169  and  _171
REMARK   61  A    between atoms: _171  and  _172
REMARK   62  A    between atoms: _171  and  _174
REMARK   63  A    between atoms: _174  and  _175
REMARK   64  A    between atoms: _175  and  _176
REMARK   65  A    between atoms: _179  and  _181
REMARK   66  A    between atoms: _181  and  _182
REMARK   67  A    between atoms: _181  and  _184
REMARK   68  A    between atoms: _184  and  _185
REMARK   69  A    between atoms: _189  and  ZN_356
REMARK   70  A    between atoms: _190  and  _192
REMARK   71  A    between atoms: _192  and  _193
REMARK   72  A    between atoms: _192  and  _195
REMARK   73  A    between atoms: _195  and  _196
REMARK   74  A    between atoms: _199  and  _201
REMARK   75  A    between atoms: _201  and  _202
REMARK   76  A    between atoms: _201  and  _204
REMARK   77  A    between atoms: _204  and  _205
REMARK   78  A    between atoms: _205  and  _206
REMARK   79  A    between atoms: _211  and  _213
REMARK   80  A    between atoms: _213  and  _214
REMARK   81  A    between atoms: _213  and  _216
REMARK   82  A    between atoms: _216  and  _217
REMARK   83  A    between atoms: _222  and  _224
REMARK   84  A    between atoms: _224  and  _225
REMARK   85  A    between atoms: _224  and  _227
REMARK   86  A    between atoms: _227  and  _228
REMARK   87  A    between atoms: _231  and  _233
REMARK   88  A    between atoms: _233  and  _234
REMARK   89  A    between atoms: _233  and  _236
REMARK   90  A    between atoms: _236  and  _237
REMARK   91  A    between atoms: _242  and  _243
REMARK   92  A    between atoms: _245  and  _247
REMARK   93  A    between atoms: _247  and  _248
REMARK   94  A    between atoms: _247  and  _250
REMARK   95  A    between atoms: _252  and  _254
REMARK   96  A    between atoms: _254  and  _255
REMARK   97  A    between atoms: _254  and  _257
REMARK   98  A    between atoms: _257  and  _258
REMARK   99  A    between atoms: _262  and  _263
REMARK  100  A    between atoms: _268  and  _270
REMARK  101  A    between atoms: _270  and  _271
REMARK  102  A    between atoms: _270  and  _273
REMARK  103  A    between atoms: _273  and  _274
REMARK  104  A    between atoms: _277  and  _279
REMARK  105  A    between atoms: _279  and  _280
REMARK  106  A    between atoms: _279  and  _282
REMARK  107  A    between atoms: _282  and  _283
REMARK  108  A    between atoms: _283  and  _284
REMARK  109  A    between atoms: _284  and  ZN_357
REMARK  110  A    between atoms: _286  and  _288
REMARK  111  A    between atoms: _288  and  _289
REMARK  112  A    between atoms: _288  and  _291
REMARK  113  A    between atoms: _291  and  _292
REMARK  114  A    between atoms: _294  and  _296
REMARK  115  A    between atoms: _296  and  _297
REMARK  116  A    between atoms: _301  and  _302
REMARK  117  A    between atoms: _307  and  _309
REMARK  118  A    between atoms: _309  and  _310
REMARK  119  A    between atoms: _309  and  _312
REMARK  120  A    between atoms: _312  and  _313
REMARK  121  A    between atoms: _318  and  _320
REMARK  122  A    between atoms: _320  and  _321
REMARK  123  A    between atoms: _320  and  _323
REMARK  124  A    between atoms: _323  and  _324
REMARK  125  A    between atoms: _324  and  _325
REMARK  126  A    between atoms: _325  and  _326
REMARK  127  A    between atoms: _326  and  _327
REMARK  128  A    between atoms: _331  and  _333
REMARK  129  A    between atoms: _333  and  _334
REMARK  130  A    between atoms: _333  and  _336
REMARK  131  A    between atoms: _338  and  _340
REMARK  132  A    between atoms: _340  and  _341
REMARK  133  A    between atoms: _344  and  _346
REMARK  134  A    between atoms: _346  and  _347
REMARK  135  A    between atoms: _349  and  _351
REMARK  136  A    between atoms: _351  and  _352
REMARK  137  A    between atoms: _351  and  _354
REMARK                            x       y       z     vdW  Elec       q    Type
REMARK                         _______ _______ _______ _____ _____    ______ ____
ROOT
ATOM      1  O   HOH     1      25.497  48.144  68.157  0.00  0.00    +0.000 OA
ENDROOT
TORSDOF 0
REMARK  Name = ../refined-set-2016/2eg8/2eg8_pocket.pdb
REMARK  137 active torsions:
REMARK  status: ('A' for Active; 'I' for Inactive)
REMARK    1  A    between atoms: _1  and  _3
REMARK    2  A    between atoms: _14  and  _17
REMARK    3  A    between atoms: _17  and  _18
REMARK    4  A    between atoms: _23  and  _24
REMARK    5  A    between atoms: _32  and  _34
REMARK    6  A    between atoms: _34  and  _35
REMARK    7  A    between atoms: _34  and  _37
REMARK    8  A    between atoms: _37  and  _38
REMARK    9  A    between atoms: _41  and  _43
REMARK   10  A    between atoms: _43  and  _44
REMARK   11  A    between atoms: _43  and  _46
REMARK   12  A    between atoms: _46  and  _47
REMARK   13  A    between atoms: _47  and  _48
REMARK   14  A    between atoms: _48  and  _49
REMARK   15  A    between atoms: _58  and  _60
REMARK   16  A    between atoms: _60  and  _61
REMARK   17  A    between atoms: _60  and  _63
REMARK   18  A    between atoms: _63  and  _64
REMARK   19  A    between atoms: _64  and  _65
REMARK   20  A    between atoms: _68  and  _69
REMARK   21  A    between atoms: _74  and  _76
REMARK   22  A    between atoms: _76  and  _77
REMARK   23  A    between atoms: _76  and  _79
REMARK   24  A    between atoms: _79  and  _80
REMARK   25  A    between atoms: _85  and  _87
REMARK   26  A    between atoms: _87  and  _88
REMARK   27  A    between atoms: _87  and  _90
REMARK   28  A    between atoms: _90  and  _91
REMARK   29  A    between atoms: _94  and  _96
REMARK   30  A    between atoms: _96  and  _97
REMARK   31  A    between atoms: _96  and  _99
REMARK   32  A    between atoms: _99  and  _100
REMARK   33  A    between atoms: _105  and  _106
REMARK   34  A    between atoms: _108  and  _110
REMARK   35  A    between atoms: _110  and  _111
REMARK   36  A    between atoms: _110  and  _117
REMARK   37  A    between atoms: _111  and  _112
REMARK   38  A    between atoms: _112  and  _113
REMARK   39  A    between atoms: _113  and  _114
REMARK   40  A    between atoms: _114  and  _115
REMARK   41  A    between atoms: _115  and  _119
REMARK   42  A    between atoms: _122  and  _124
REMARK   43  A    between atoms: _124  and  _125
REMARK   44  A    between atoms: _124  and  _127
REMARK   45  A    between atoms: _127  and  _128
REMARK   46  A    between atoms: _133  and  _134
REMARK   47  A    between atoms: _137  and  _138
REMARK   48  A    between atoms: _143  and  _145
REMARK   49  A    between atoms: _145  and  _146
REMARK   50  A    between atoms: _145  and  _148
REMARK   51  A    between atoms: _148  and  _149
REMARK   52  A    between atoms: _150  and  ZN_356
REMARK   53  A    between atoms: _154  and  _156
REMARK   54  A    between atoms: _156  and  _157
REMARK   55  A    between atoms: _159  and  _161
REMARK   56  A    between atoms: _161  and  _162
REMARK   57  A    between atoms: _161  and  _164
REMARK   58  A    between atoms: _164  and  _165
REMARK   59  A    between atoms: _165  and  _166
REMARK   60  A    between atoms: _169  and  _171
REMARK   61  A    between atoms: _171  and  _172
REMARK   62  A    between atoms: _171  and  _174
REMARK   63  A    between atoms: _174  and  _175
REMARK   64  A    between atoms: _175  and  _176
REMARK   65  A    between atoms: _179  and  _181
REMARK   66  A    between atoms: _181  and  _182
REMARK   67  A    between atoms: _181  and  _184
REMARK   68  A    between atoms: _184  and  _185
REMARK   69  A    between atoms: _189  and  ZN_356
REMARK   70  A    between atoms: _190  and  _192
REMARK   71  A    between atoms: _192  and  _193
REMARK   72  A    between atoms: _192  and  _195
REMARK   73  A    between atoms: _195  and  _196
REMARK   74  A    between atoms: _199  and  _201
REMARK   75  A    between atoms: _201  and  _202
REMARK   76  A    between atoms: _201  and  _204
REMARK   77  A    between atoms: _204  and  _205
REMARK   78  A    between atoms: _205  and  _206
REMARK   79  A    between atoms: _211  and  _213
REMARK   80  A    between atoms: _213  and  _214
REMARK   81  A    between atoms: _213  and  _216
REMARK   82  A    between atoms: _216  and  _217
REMARK   83  A    between atoms: _222  and  _224
REMARK   84  A    between atoms: _224  and  _225
REMARK   85  A    between atoms: _224  and  _227
REMARK   86  A    between atoms: _227  and  _228
REMARK   87  A    between atoms: _231  and  _233
REMARK   88  A    between atoms: _233  and  _234
REMARK   89  A    between atoms: _233  and  _236
REMARK   90  A    between atoms: _236  and  _237
REMARK   91  A    between atoms: _242  and  _243
REMARK   92  A    between atoms: _245  and  _247
REMARK   93  A    between atoms: _247  and  _248
REMARK   94  A    between atoms: _247  and  _250
REMARK   95  A    between atoms: _252  and  _254
REMARK   96  A    between atoms: _254  and  _255
REMARK   97  A    between atoms: _254  and  _257
REMARK   98  A    between atoms: _257  and  _258
REMARK   99  A    between atoms: _262  and  _263
REMARK  100  A    between atoms: _268  and  _270
REMARK  101  A    between atoms: _270  and  _271
REMARK  102  A    between atoms: _270  and  _273
REMARK  103  A    between atoms: _273  and  _274
REMARK  104  A    between atoms: _277  and  _279
REMARK  105  A    between atoms: _279  and  _280
REMARK  106  A    between atoms: _279  and  _282
REMARK  107  A    between atoms: _282  and  _283
REMARK  108  A    between atoms: _283  and  _284
REMARK  109  A    between atoms: _284  and  ZN_357
REMARK  110  A    between atoms: _286  and  _288
REMARK  111  A    between atoms: _288  and  _289
REMARK  112  A    between atoms: _288  and  _291
REMARK  113  A    between atoms: _291  and  _292
REMARK  114  A    between atoms: _294  and  _296
REMARK  115  A    between atoms: _296  and  _297
REMARK  116  A    between atoms: _301  and  _302
REMARK  117  A    between atoms: _307  and  _309
REMARK  118  A    between atoms: _309  and  _310
REMARK  119  A    between atoms: _309  and  _312
REMARK  120  A    between atoms: _312  and  _313
REMARK  121  A    between atoms: _318  and  _320
REMARK  122  A    between atoms: _320  and  _321
REMARK  123  A    between atoms: _320  and  _323
REMARK  124  A    between atoms: _323  and  _324
REMARK  125  A    between atoms: _324  and  _325
REMARK  126  A    between atoms: _325  and  _326
REMARK  127  A    between atoms: _326  and  _327
REMARK  128  A    between atoms: _331  and  _333
REMARK  129  A    between atoms: _333  and  _334
REMARK  130  A    between atoms: _333  and  _336
REMARK  131  A    between atoms: _338  and  _340
REMARK  132  A    between atoms: _340  and  _341
REMARK  133  A    between atoms: _344  and  _346
REMARK  134  A    between atoms: _346  and  _347
REMARK  135  A    between atoms: _349  and  _351
REMARK  136  A    between atoms: _351  and  _352
REMARK  137  A    between atoms: _351  and  _354
REMARK                            x       y       z     vdW  Elec       q    Type
REMARK                         _______ _______ _______ _____ _____    ______ ____
ROOT
ATOM      1  O   HOH     1      30.669  35.760  66.983  0.00  0.00    +0.000 OA
ENDROOT
TORSDOF 0
REMARK  Name = ../refined-set-2016/2eg8/2eg8_pocket.pdb
REMARK  137 active torsions:
REMARK  status: ('A' for Active; 'I' for Inactive)
REMARK    1  A    between atoms: _1  and  _3
REMARK    2  A    between atoms: _14  and  _17
REMARK    3  A    between atoms: _17  and  _18
REMARK    4  A    between atoms: _23  and  _24
REMARK    5  A    between atoms: _32  and  _34
REMARK    6  A    between atoms: _34  and  _35
REMARK    7  A    between atoms: _34  and  _37
REMARK    8  A    between atoms: _37  and  _38
REMARK    9  A    between atoms: _41  and  _43
REMARK   10  A    between atoms: _43  and  _44
REMARK   11  A    between atoms: _43  and  _46
REMARK   12  A    between atoms: _46  and  _47
REMARK   13  A    between atoms: _47  and  _48
REMARK   14  A    between atoms: _48  and  _49
REMARK   15  A    between atoms: _58  and  _60
REMARK   16  A    between atoms: _60  and  _61
REMARK   17  A    between atoms: _60  and  _63
REMARK   18  A    between atoms: _63  and  _64
REMARK   19  A    between atoms: _64  and  _65
REMARK   20  A    between atoms: _68  and  _69
REMARK   21  A    between atoms: _74  and  _76
REMARK   22  A    between atoms: _76  and  _77
REMARK   23  A    between atoms: _76  and  _79
REMARK   24  A    between atoms: _79  and  _80
REMARK   25  A    between atoms: _85  and  _87
REMARK   26  A    between atoms: _87  and  _88
REMARK   27  A    between atoms: _87  and  _90
REMARK   28  A    between atoms: _90  and  _91
REMARK   29  A    between atoms: _94  and  _96
REMARK   30  A    between atoms: _96  and  _97
REMARK   31  A    between atoms: _96  and  _99
REMARK   32  A    between atoms: _99  and  _100
REMARK   33  A    between atoms: _105  and  _106
REMARK   34  A    between atoms: _108  and  _110
REMARK   35  A    between atoms: _110  and  _111
REMARK   36  A    between atoms: _110  and  _117
REMARK   37  A    between atoms: _111  and  _112
REMARK   38  A    between atoms: _112  and  _113
REMARK   39  A    between atoms: _113  and  _114
REMARK   40  A    between atoms: _114  and  _115
REMARK   41  A    between atoms: _115  and  _119
REMARK   42  A    between atoms: _122  and  _124
REMARK   43  A    between atoms: _124  and  _125
REMARK   44  A    between atoms: _124  and  _127
REMARK   45  A    between atoms: _127  and  _128
REMARK   46  A    between atoms: _133  and  _134
REMARK   47  A    between atoms: _137  and  _138
REMARK   48  A    between atoms: _143  and  _145
REMARK   49  A    between atoms: _145  and  _146
REMARK   50  A    between atoms: _145  and  _148
REMARK   51  A    between atoms: _148  and  _149
REMARK   52  A    between atoms: _150  and  ZN_356
REMARK   53  A    between atoms: _154  and  _156
REMARK   54  A    between atoms: _156  and  _157
REMARK   55  A    between atoms: _159  and  _161
REMARK   56  A    between atoms: _161  and  _162
REMARK   57  A    between atoms: _161  and  _164
REMARK   58  A    between atoms: _164  and  _165
REMARK   59  A    between atoms: _165  and  _166
REMARK   60  A    between atoms: _169  and  _171
REMARK   61  A    between atoms: _171  and  _172
REMARK   62  A    between atoms: _171  and  _174
REMARK   63  A    between atoms: _174  and  _175
REMARK   64  A    between atoms: _175  and  _176
REMARK   65  A    between atoms: _179  and  _181
REMARK   66  A    between atoms: _181  and  _182
REMARK   67  A    between atoms: _181  and  _184
REMARK   68  A    between atoms: _184  and  _185
REMARK   69  A    between atoms: _189  and  ZN_356
REMARK   70  A    between atoms: _190  and  _192
REMARK   71  A    between atoms: _192  and  _193
REMARK   72  A    between atoms: _192  and  _195
REMARK   73  A    between atoms: _195  and  _196
REMARK   74  A    between atoms: _199  and  _201
REMARK   75  A    between atoms: _201  and  _202
REMARK   76  A    between atoms: _201  and  _204
REMARK   77  A    between atoms: _204  and  _205
REMARK   78  A    between atoms: _205  and  _206
REMARK   79  A    between atoms: _211  and  _213
REMARK   80  A    between atoms: _213  and  _214
REMARK   81  A    between atoms: _213  and  _216
REMARK   82  A    between atoms: _216  and  _217
REMARK   83  A    between atoms: _222  and  _224
REMARK   84  A    between atoms: _224  and  _225
REMARK   85  A    between atoms: _224  and  _227
REMARK   86  A    between atoms: _227  and  _228
REMARK   87  A    between atoms: _231  and  _233
REMARK   88  A    between atoms: _233  and  _234
REMARK   89  A    between atoms: _233  and  _236
REMARK   90  A    between atoms: _236  and  _237
REMARK   91  A    between atoms: _242  and  _243
REMARK   92  A    between atoms: _245  and  _247
REMARK   93  A    between atoms: _247  and  _248
REMARK   94  A    between atoms: _247  and  _250
REMARK   95  A    between atoms: _252  and  _254
REMARK   96  A    between atoms: _254  and  _255
REMARK   97  A    between atoms: _254  and  _257
REMARK   98  A    between atoms: _257  and  _258
REMARK   99  A    between atoms: _262  and  _263
REMARK  100  A    between atoms: _268  and  _270
REMARK  101  A    between atoms: _270  and  _271
REMARK  102  A    between atoms: _270  and  _273
REMARK  103  A    between atoms: _273  and  _274
REMARK  104  A    between atoms: _277  and  _279
REMARK  105  A    between atoms: _279  and  _280
REMARK  106  A    between atoms: _279  and  _282
REMARK  107  A    between atoms: _282  and  _283
REMARK  108  A    between atoms: _283  and  _284
REMARK  109  A    between atoms: _284  and  ZN_357
REMARK  110  A    between atoms: _286  and  _288
REMARK  111  A    between atoms: _288  and  _289
REMARK  112  A    between atoms: _288  and  _291
REMARK  113  A    between atoms: _291  and  _292
REMARK  114  A    between atoms: _294  and  _296
REMARK  115  A    between atoms: _296  and  _297
REMARK  116  A    between atoms: _301  and  _302
REMARK  117  A    between atoms: _307  and  _309
REMARK  118  A    between atoms: _309  and  _310
REMARK  119  A    between atoms: _309  and  _312
REMARK  120  A    between atoms: _312  and  _313
REMARK  121  A    between atoms: _318  and  _320
REMARK  122  A    between atoms: _320  and  _321
REMARK  123  A    between atoms: _320  and  _323
REMARK  124  A    between atoms: _323  and  _324
REMARK  125  A    between atoms: _324  and  _325
REMARK  126  A    between atoms: _325  and  _326
REMARK  127  A    between atoms: _326  and  _327
REMARK  128  A    between atoms: _331  and  _333
REMARK  129  A    between atoms: _333  and  _334
REMARK  130  A    between atoms: _333  and  _336
REMARK  131  A    between atoms: _338  and  _340
REMARK  132  A    between atoms: _340  and  _341
REMARK  133  A    between atoms: _344  and  _346
REMARK  134  A    between atoms: _346  and  _347
REMARK  135  A    between atoms: _349  and  _351
REMARK  136  A    between atoms: _351  and  _352
REMARK  137  A    between atoms: _351  and  _354
REMARK                            x       y       z     vdW  Elec       q    Type
REMARK                         _______ _______ _______ _____ _____    ______ ____
ROOT
ATOM      1  O   HOH     1      17.790  41.151  74.971  0.00  0.00    +0.000 OA
ENDROOT
TORSDOF 0
REMARK  Name = ../refined-set-2016/2eg8/2eg8_pocket.pdb
REMARK  137 active torsions:
REMARK  status: ('A' for Active; 'I' for Inactive)
REMARK    1  A    between atoms: _1  and  _3
REMARK    2  A    between atoms: _14  and  _17
REMARK    3  A    between atoms: _17  and  _18
REMARK    4  A    between atoms: _23  and  _24
REMARK    5  A    between atoms: _32  and  _34
REMARK    6  A    between atoms: _34  and  _35
REMARK    7  A    between atoms: _34  and  _37
REMARK    8  A    between atoms: _37  and  _38
REMARK    9  A    between atoms: _41  and  _43
REMARK   10  A    between atoms: _43  and  _44
REMARK   11  A    between atoms: _43  and  _46
REMARK   12  A    between atoms: _46  and  _47
REMARK   13  A    between atoms: _47  and  _48
REMARK   14  A    between atoms: _48  and  _49
REMARK   15  A    between atoms: _58  and  _60
REMARK   16  A    between atoms: _60  and  _61
REMARK   17  A    between atoms: _60  and  _63
REMARK   18  A    between atoms: _63  and  _64
REMARK   19  A    between atoms: _64  and  _65
REMARK   20  A    between atoms: _68  and  _69
REMARK   21  A    between atoms: _74  and  _76
REMARK   22  A    between atoms: _76  and  _77
REMARK   23  A    between atoms: _76  and  _79
REMARK   24  A    between atoms: _79  and  _80
REMARK   25  A    between atoms: _85  and  _87
REMARK   26  A    between atoms: _87  and  _88
REMARK   27  A    between atoms: _87  and  _90
REMARK   28  A    between atoms: _90  and  _91
REMARK   29  A    between atoms: _94  and  _96
REMARK   30  A    between atoms: _96  and  _97
REMARK   31  A    between atoms: _96  and  _99
REMARK   32  A    between atoms: _99  and  _100
REMARK   33  A    between atoms: _105  and  _106
REMARK   34  A    between atoms: _108  and  _110
REMARK   35  A    between atoms: _110  and  _111
REMARK   36  A    between atoms: _110  and  _117
REMARK   37  A    between atoms: _111  and  _112
REMARK   38  A    between atoms: _112  and  _113
REMARK   39  A    between atoms: _113  and  _114
REMARK   40  A    between atoms: _114  and  _115
REMARK   41  A    between atoms: _115  and  _119
REMARK   42  A    between atoms: _122  and  _124
REMARK   43  A    between atoms: _124  and  _125
REMARK   44  A    between atoms: _124  and  _127
REMARK   45  A    between atoms: _127  and  _128
REMARK   46  A    between atoms: _133  and  _134
REMARK   47  A    between atoms: _137  and  _138
REMARK   48  A    between atoms: _143  and  _145
REMARK   49  A    between atoms: _145  and  _146
REMARK   50  A    between atoms: _145  and  _148
REMARK   51  A    between atoms: _148  and  _149
REMARK   52  A    between atoms: _150  and  ZN_356
REMARK   53  A    between atoms: _154  and  _156
REMARK   54  A    between atoms: _156  and  _157
REMARK   55  A    between atoms: _159  and  _161
REMARK   56  A    between atoms: _161  and  _162
REMARK   57  A    between atoms: _161  and  _164
REMARK   58  A    between atoms: _164  and  _165
REMARK   59  A    between atoms: _165  and  _166
REMARK   60  A    between atoms: _169  and  _171
REMARK   61  A    between atoms: _171  and  _172
REMARK   62  A    between atoms: _171  and  _174
REMARK   63  A    between atoms: _174  and  _175
REMARK   64  A    between atoms: _175  and  _176
REMARK   65  A    between atoms: _179  and  _181
REMARK   66  A    between atoms: _181  and  _182
REMARK   67  A    between atoms: _181  and  _184
REMARK   68  A    between atoms: _184  and  _185
REMARK   69  A    between atoms: _189  and  ZN_356
REMARK   70  A    between atoms: _190  and  _192
REMARK   71  A    between atoms: _192  and  _193
REMARK   72  A    between atoms: _192  and  _195
REMARK   73  A    between atoms: _195  and  _196
REMARK   74  A    between atoms: _199  and  _201
REMARK   75  A    between atoms: _201  and  _202
REMARK   76  A    between atoms: _201  and  _204
REMARK   77  A    between atoms: _204  and  _205
REMARK   78  A    between atoms: _205  and  _206
REMARK   79  A    between atoms: _211  and  _213
REMARK   80  A    between atoms: _213  and  _214
REMARK   81  A    between atoms: _213  and  _216
REMARK   82  A    between atoms: _216  and  _217
REMARK   83  A    between atoms: _222  and  _224
REMARK   84  A    between atoms: _224  and  _225
REMARK   85  A    between atoms: _224  and  _227
REMARK   86  A    between atoms: _227  and  _228
REMARK   87  A    between atoms: _231  and  _233
REMARK   88  A    between atoms: _233  and  _234
REMARK   89  A    between atoms: _233  and  _236
REMARK   90  A    between atoms: _236  and  _237
REMARK   91  A    between atoms: _242  and  _243
REMARK   92  A    between atoms: _245  and  _247
REMARK   93  A    between atoms: _247  and  _248
REMARK   94  A    between atoms: _247  and  _250
REMARK   95  A    between atoms: _252  and  _254
REMARK   96  A    between atoms: _254  and  _255
REMARK   97  A    between atoms: _254  and  _257
REMARK   98  A    between atoms: _257  and  _258
REMARK   99  A    between atoms: _262  and  _263
REMARK  100  A    between atoms: _268  and  _270
REMARK  101  A    between atoms: _270  and  _271
REMARK  102  A    between atoms: _270  and  _273
REMARK  103  A    between atoms: _273  and  _274
REMARK  104  A    between atoms: _277  and  _279
REMARK  105  A    between atoms: _279  and  _280
REMARK  106  A    between atoms: _279  and  _282
REMARK  107  A    between atoms: _282  and  _283
REMARK  108  A    between atoms: _283  and  _284
REMARK  109  A    between atoms: _284  and  ZN_357
REMARK  110  A    between atoms: _286  and  _288
REMARK  111  A    between atoms: _288  and  _289
REMARK  112  A    between atoms: _288  and  _291
REMARK  113  A    between atoms: _291  and  _292
REMARK  114  A    between atoms: _294  and  _296
REMARK  115  A    between atoms: _296  and  _297
REMARK  116  A    between atoms: _301  and  _302
REMARK  117  A    between atoms: _307  and  _309
REMARK  118  A    between atoms: _309  and  _310
REMARK  119  A    between atoms: _309  and  _312
REMARK  120  A    between atoms: _312  and  _313
REMARK  121  A    between atoms: _318  and  _320
REMARK  122  A    between atoms: _320  and  _321
REMARK  123  A    between atoms: _320  and  _323
REMARK  124  A    between atoms: _323  and  _324
REMARK  125  A    between atoms: _324  and  _325
REMARK  126  A    between atoms: _325  and  _326
REMARK  127  A    between atoms: _326  and  _327
REMARK  128  A    between atoms: _331  and  _333
REMARK  129  A    between atoms: _333  and  _334
REMARK  130  A    between atoms: _333  and  _336
REMARK  131  A    between atoms: _338  and  _340
REMARK  132  A    between atoms: _340  and  _341
REMARK  133  A    between atoms: _344  and  _346
REMARK  134  A    between atoms: _346  and  _347
REMARK  135  A    between atoms: _349  and  _351
REMARK  136  A    between atoms: _351  and  _352
REMARK  137  A    between atoms: _351  and  _354
REMARK                            x       y       z     vdW  Elec       q    Type
REMARK                         _______ _______ _______ _____ _____    ______ ____
ROOT
ATOM      1  O   HOH     1      19.397  47.570  71.631  0.00  0.00    +0.000 OA
ENDROOT
TORSDOF 0
REMARK  Name = ../refined-set-2016/2eg8/2eg8_pocket.pdb
REMARK  137 active torsions:
REMARK  status: ('A' for Active; 'I' for Inactive)
REMARK    1  A    between atoms: _1  and  _3
REMARK    2  A    between atoms: _14  and  _17
REMARK    3  A    between atoms: _17  and  _18
REMARK    4  A    between atoms: _23  and  _24
REMARK    5  A    between atoms: _32  and  _34
REMARK    6  A    between atoms: _34  and  _35
REMARK    7  A    between atoms: _34  and  _37
REMARK    8  A    between atoms: _37  and  _38
REMARK    9  A    between atoms: _41  and  _43
REMARK   10  A    between atoms: _43  and  _44
REMARK   11  A    between atoms: _43  and  _46
REMARK   12  A    between atoms: _46  and  _47
REMARK   13  A    between atoms: _47  and  _48
REMARK   14  A    between atoms: _48  and  _49
REMARK   15  A    between atoms: _58  and  _60
REMARK   16  A    between atoms: _60  and  _61
REMARK   17  A    between atoms: _60  and  _63
REMARK   18  A    between atoms: _63  and  _64
REMARK   19  A    between atoms: _64  and  _65
REMARK   20  A    between atoms: _68  and  _69
REMARK   21  A    between atoms: _74  and  _76
REMARK   22  A    between atoms: _76  and  _77
REMARK   23  A    between atoms: _76  and  _79
REMARK   24  A    between atoms: _79  and  _80
REMARK   25  A    between atoms: _85  and  _87
REMARK   26  A    between atoms: _87  and  _88
REMARK   27  A    between atoms: _87  and  _90
REMARK   28  A    between atoms: _90  and  _91
REMARK   29  A    between atoms: _94  and  _96
REMARK   30  A    between atoms: _96  and  _97
REMARK   31  A    between atoms: _96  and  _99
REMARK   32  A    between atoms: _99  and  _100
REMARK   33  A    between atoms: _105  and  _106
REMARK   34  A    between atoms: _108  and  _110
REMARK   35  A    between atoms: _110  and  _111
REMARK   36  A    between atoms: _110  and  _117
REMARK   37  A    between atoms: _111  and  _112
REMARK   38  A    between atoms: _112  and  _113
REMARK   39  A    between atoms: _113  and  _114
REMARK   40  A    between atoms: _114  and  _115
REMARK   41  A    between atoms: _115  and  _119
REMARK   42  A    between atoms: _122  and  _124
REMARK   43  A    between atoms: _124  and  _125
REMARK   44  A    between atoms: _124  and  _127
REMARK   45  A    between atoms: _127  and  _128
REMARK   46  A    between atoms: _133  and  _134
REMARK   47  A    between atoms: _137  and  _138
REMARK   48  A    between atoms: _143  and  _145
REMARK   49  A    between atoms: _145  and  _146
REMARK   50  A    between atoms: _145  and  _148
REMARK   51  A    between atoms: _148  and  _149
REMARK   52  A    between atoms: _150  and  ZN_356
REMARK   53  A    between atoms: _154  and  _156
REMARK   54  A    between atoms: _156  and  _157
REMARK   55  A    between atoms: _159  and  _161
REMARK   56  A    between atoms: _161  and  _162
REMARK   57  A    between atoms: _161  and  _164
REMARK   58  A    between atoms: _164  and  _165
REMARK   59  A    between atoms: _165  and  _166
REMARK   60  A    between atoms: _169  and  _171
REMARK   61  A    between atoms: _171  and  _172
REMARK   62  A    between atoms: _171  and  _174
REMARK   63  A    between atoms: _174  and  _175
REMARK   64  A    between atoms: _175  and  _176
REMARK   65  A    between atoms: _179  and  _181
REMARK   66  A    between atoms: _181  and  _182
REMARK   67  A    between atoms: _181  and  _184
REMARK   68  A    between atoms: _184  and  _185
REMARK   69  A    between atoms: _189  and  ZN_356
REMARK   70  A    between atoms: _190  and  _192
REMARK   71  A    between atoms: _192  and  _193
REMARK   72  A    between atoms: _192  and  _195
REMARK   73  A    between atoms: _195  and  _196
REMARK   74  A    between atoms: _199  and  _201
REMARK   75  A    between atoms: _201  and  _202
REMARK   76  A    between atoms: _201  and  _204
REMARK   77  A    between atoms: _204  and  _205
REMARK   78  A    between atoms: _205  and  _206
REMARK   79  A    between atoms: _211  and  _213
REMARK   80  A    between atoms: _213  and  _214
REMARK   81  A    between atoms: _213  and  _216
REMARK   82  A    between atoms: _216  and  _217
REMARK   83  A    between atoms: _222  and  _224
REMARK   84  A    between atoms: _224  and  _225
REMARK   85  A    between atoms: _224  and  _227
REMARK   86  A    between atoms: _227  and  _228
REMARK   87  A    between atoms: _231  and  _233
REMARK   88  A    between atoms: _233  and  _234
REMARK   89  A    between atoms: _233  and  _236
REMARK   90  A    between atoms: _236  and  _237
REMARK   91  A    between atoms: _242  and  _243
REMARK   92  A    between atoms: _245  and  _247
REMARK   93  A    between atoms: _247  and  _248
REMARK   94  A    between atoms: _247  and  _250
REMARK   95  A    between atoms: _252  and  _254
REMARK   96  A    between atoms: _254  and  _255
REMARK   97  A    between atoms: _254  and  _257
REMARK   98  A    between atoms: _257  and  _258
REMARK   99  A    between atoms: _262  and  _263
REMARK  100  A    between atoms: _268  and  _270
REMARK  101  A    between atoms: _270  and  _271
REMARK  102  A    between atoms: _270  and  _273
REMARK  103  A    between atoms: _273  and  _274
REMARK  104  A    between atoms: _277  and  _279
REMARK  105  A    between atoms: _279  and  _280
REMARK  106  A    between atoms: _279  and  _282
REMARK  107  A    between atoms: _282  and  _283
REMARK  108  A    between atoms: _283  and  _284
REMARK  109  A    between atoms: _284  and  ZN_357
REMARK  110  A    between atoms: _286  and  _288
REMARK  111  A    between atoms: _288  and  _289
REMARK  112  A    between atoms: _288  and  _291
REMARK  113  A    between atoms: _291  and  _292
REMARK  114  A    between atoms: _294  and  _296
REMARK  115  A    between atoms: _296  and  _297
REMARK  116  A    between atoms: _301  and  _302
REMARK  117  A    between atoms: _307  and  _309
REMARK  118  A    between atoms: _309  and  _310
REMARK  119  A    between atoms: _309  and  _312
REMARK  120  A    between atoms: _312  and  _313
REMARK  121  A    between atoms: _318  and  _320
REMARK  122  A    between atoms: _320  and  _321
REMARK  123  A    between atoms: _320  and  _323
REMARK  124  A    between atoms: _323  and  _324
REMARK  125  A    between atoms: _324  and  _325
REMARK  126  A    between atoms: _325  and  _326
REMARK  127  A    between atoms: _326  and  _327
REMARK  128  A    between atoms: _331  and  _333
REMARK  129  A    between atoms: _333  and  _334
REMARK  130  A    between atoms: _333  and  _336
REMARK  131  A    between atoms: _338  and  _340
REMARK  132  A    between atoms: _340  and  _341
REMARK  133  A    between atoms: _344  and  _346
REMARK  134  A    between atoms: _346  and  _347
REMARK  135  A    between atoms: _349  and  _351
REMARK  136  A    between atoms: _351  and  _352
REMARK  137  A    between atoms: _351  and  _354
REMARK                            x       y       z     vdW  Elec       q    Type
REMARK                         _______ _______ _______ _____ _____    ______ ____
ROOT
ATOM      1  O   HOH     1      21.633  47.250  70.375  0.00  0.00    +0.000 OA
ENDROOT
TORSDOF 0
REMARK  Name = ../refined-set-2016/2eg8/2eg8_pocket.pdb
REMARK  137 active torsions:
REMARK  status: ('A' for Active; 'I' for Inactive)
REMARK    1  A    between atoms: _1  and  _3
REMARK    2  A    between atoms: _14  and  _17
REMARK    3  A    between atoms: _17  and  _18
REMARK    4  A    between atoms: _23  and  _24
REMARK    5  A    between atoms: _32  and  _34
REMARK    6  A    between atoms: _34  and  _35
REMARK    7  A    between atoms: _34  and  _37
REMARK    8  A    between atoms: _37  and  _38
REMARK    9  A    between atoms: _41  and  _43
REMARK   10  A    between atoms: _43  and  _44
REMARK   11  A    between atoms: _43  and  _46
REMARK   12  A    between atoms: _46  and  _47
REMARK   13  A    between atoms: _47  and  _48
REMARK   14  A    between atoms: _48  and  _49
REMARK   15  A    between atoms: _58  and  _60
REMARK   16  A    between atoms: _60  and  _61
REMARK   17  A    between atoms: _60  and  _63
REMARK   18  A    between atoms: _63  and  _64
REMARK   19  A    between atoms: _64  and  _65
REMARK   20  A    between atoms: _68  and  _69
REMARK   21  A    between atoms: _74  and  _76
REMARK   22  A    between atoms: _76  and  _77
REMARK   23  A    between atoms: _76  and  _79
REMARK   24  A    between atoms: _79  and  _80
REMARK   25  A    between atoms: _85  and  _87
REMARK   26  A    between atoms: _87  and  _88
REMARK   27  A    between atoms: _87  and  _90
REMARK   28  A    between atoms: _90  and  _91
REMARK   29  A    between atoms: _94  and  _96
REMARK   30  A    between atoms: _96  and  _97
REMARK   31  A    between atoms: _96  and  _99
REMARK   32  A    between atoms: _99  and  _100
REMARK   33  A    between atoms: _105  and  _106
REMARK   34  A    between atoms: _108  and  _110
REMARK   35  A    between atoms: _110  and  _111
REMARK   36  A    between atoms: _110  and  _117
REMARK   37  A    between atoms: _111  and  _112
REMARK   38  A    between atoms: _112  and  _113
REMARK   39  A    between atoms: _113  and  _114
REMARK   40  A    between atoms: _114  and  _115
REMARK   41  A    between atoms: _115  and  _119
REMARK   42  A    between atoms: _122  and  _124
REMARK   43  A    between atoms: _124  and  _125
REMARK   44  A    between atoms: _124  and  _127
REMARK   45  A    between atoms: _127  and  _128
REMARK   46  A    between atoms: _133  and  _134
REMARK   47  A    between atoms: _137  and  _138
REMARK   48  A    between atoms: _143  and  _145
REMARK   49  A    between atoms: _145  and  _146
REMARK   50  A    between atoms: _145  and  _148
REMARK   51  A    between atoms: _148  and  _149
REMARK   52  A    between atoms: _150  and  ZN_356
REMARK   53  A    between atoms: _154  and  _156
REMARK   54  A    between atoms: _156  and  _157
REMARK   55  A    between atoms: _159  and  _161
REMARK   56  A    between atoms: _161  and  _162
REMARK   57  A    between atoms: _161  and  _164
REMARK   58  A    between atoms: _164  and  _165
REMARK   59  A    between atoms: _165  and  _166
REMARK   60  A    between atoms: _169  and  _171
REMARK   61  A    between atoms: _171  and  _172
REMARK   62  A    between atoms: _171  and  _174
REMARK   63  A    between atoms: _174  and  _175
REMARK   64  A    between atoms: _175  and  _176
REMARK   65  A    between atoms: _179  and  _181
REMARK   66  A    between atoms: _181  and  _182
REMARK   67  A    between atoms: _181  and  _184
REMARK   68  A    between atoms: _184  and  _185
REMARK   69  A    between atoms: _189  and  ZN_356
REMARK   70  A    between atoms: _190  and  _192
REMARK   71  A    between atoms: _192  and  _193
REMARK   72  A    between atoms: _192  and  _195
REMARK   73  A    between atoms: _195  and  _196
REMARK   74  A    between atoms: _199  and  _201
REMARK   75  A    between atoms: _201  and  _202
REMARK   76  A    between atoms: _201  and  _204
REMARK   77  A    between atoms: _204  and  _205
REMARK   78  A    between atoms: _205  and  _206
REMARK   79  A    between atoms: _211  and  _213
REMARK   80  A    between atoms: _213  and  _214
REMARK   81  A    between atoms: _213  and  _216
REMARK   82  A    between atoms: _216  and  _217
REMARK   83  A    between atoms: _222  and  _224
REMARK   84  A    between atoms: _224  and  _225
REMARK   85  A    between atoms: _224  and  _227
REMARK   86  A    between atoms: _227  and  _228
REMARK   87  A    between atoms: _231  and  _233
REMARK   88  A    between atoms: _233  and  _234
REMARK   89  A    between atoms: _233  and  _236
REMARK   90  A    between atoms: _236  and  _237
REMARK   91  A    between atoms: _242  and  _243
REMARK   92  A    between atoms: _245  and  _247
REMARK   93  A    between atoms: _247  and  _248
REMARK   94  A    between atoms: _247  and  _250
REMARK   95  A    between atoms: _252  and  _254
REMARK   96  A    between atoms: _254  and  _255
REMARK   97  A    between atoms: _254  and  _257
REMARK   98  A    between atoms: _257  and  _258
REMARK   99  A    between atoms: _262  and  _263
REMARK  100  A    between atoms: _268  and  _270
REMARK  101  A    between atoms: _270  and  _271
REMARK  102  A    between atoms: _270  and  _273
REMARK  103  A    between atoms: _273  and  _274
REMARK  104  A    between atoms: _277  and  _279
REMARK  105  A    between atoms: _279  and  _280
REMARK  106  A    between atoms: _279  and  _282
REMARK  107  A    between atoms: _282  and  _283
REMARK  108  A    between atoms: _283  and  _284
REMARK  109  A    between atoms: _284  and  ZN_357
REMARK  110  A    between atoms: _286  and  _288
REMARK  111  A    between atoms: _288  and  _289
REMARK  112  A    between atoms: _288  and  _291
REMARK  113  A    between atoms: _291  and  _292
REMARK  114  A    between atoms: _294  and  _296
REMARK  115  A    between atoms: _296  and  _297
REMARK  116  A    between atoms: _301  and  _302
REMARK  117  A    between atoms: _307  and  _309
REMARK  118  A    between atoms: _309  and  _310
REMARK  119  A    between atoms: _309  and  _312
REMARK  120  A    between atoms: _312  and  _313
REMARK  121  A    between atoms: _318  and  _320
REMARK  122  A    between atoms: _320  and  _321
REMARK  123  A    between atoms: _320  and  _323
REMARK  124  A    between atoms: _323  and  _324
REMARK  125  A    between atoms: _324  and  _325
REMARK  126  A    between atoms: _325  and  _326
REMARK  127  A    between atoms: _326  and  _327
REMARK  128  A    between atoms: _331  and  _333
REMARK  129  A    between atoms: _333  and  _334
REMARK  130  A    between atoms: _333  and  _336
REMARK  131  A    between atoms: _338  and  _340
REMARK  132  A    between atoms: _340  and  _341
REMARK  133  A    between atoms: _344  and  _346
REMARK  134  A    between atoms: _346  and  _347
REMARK  135  A    between atoms: _349  and  _351
REMARK  136  A    between atoms: _351  and  _352
REMARK  137  A    between atoms: _351  and  _354
REMARK                            x       y       z     vdW  Elec       q    Type
REMARK                         _______ _______ _______ _____ _____    ______ ____
ROOT
ATOM      1  O   HOH     1      18.344  45.744  68.688  0.00  0.00    +0.000 OA
ENDROOT
TORSDOF 0
REMARK  Name = ../refined-set-2016/2eg8/2eg8_pocket.pdb
REMARK  137 active torsions:
REMARK  status: ('A' for Active; 'I' for Inactive)
REMARK    1  A    between atoms: _1  and  _3
REMARK    2  A    between atoms: _14  and  _17
REMARK    3  A    between atoms: _17  and  _18
REMARK    4  A    between atoms: _23  and  _24
REMARK    5  A    between atoms: _32  and  _34
REMARK    6  A    between atoms: _34  and  _35
REMARK    7  A    between atoms: _34  and  _37
REMARK    8  A    between atoms: _37  and  _38
REMARK    9  A    between atoms: _41  and  _43
REMARK   10  A    between atoms: _43  and  _44
REMARK   11  A    between atoms: _43  and  _46
REMARK   12  A    between atoms: _46  and  _47
REMARK   13  A    between atoms: _47  and  _48
REMARK   14  A    between atoms: _48  and  _49
REMARK   15  A    between atoms: _58  and  _60
REMARK   16  A    between atoms: _60  and  _61
REMARK   17  A    between atoms: _60  and  _63
REMARK   18  A    between atoms: _63  and  _64
REMARK   19  A    between atoms: _64  and  _65
REMARK   20  A    between atoms: _68  and  _69
REMARK   21  A    between atoms: _74  and  _76
REMARK   22  A    between atoms: _76  and  _77
REMARK   23  A    between atoms: _76  and  _79
REMARK   24  A    between atoms: _79  and  _80
REMARK   25  A    between atoms: _85  and  _87
REMARK   26  A    between atoms: _87  and  _88
REMARK   27  A    between atoms: _87  and  _90
REMARK   28  A    between atoms: _90  and  _91
REMARK   29  A    between atoms: _94  and  _96
REMARK   30  A    between atoms: _96  and  _97
REMARK   31  A    between atoms: _96  and  _99
REMARK   32  A    between atoms: _99  and  _100
REMARK   33  A    between atoms: _105  and  _106
REMARK   34  A    between atoms: _108  and  _110
REMARK   35  A    between atoms: _110  and  _111
REMARK   36  A    between atoms: _110  and  _117
REMARK   37  A    between atoms: _111  and  _112
REMARK   38  A    between atoms: _112  and  _113
REMARK   39  A    between atoms: _113  and  _114
REMARK   40  A    between atoms: _114  and  _115
REMARK   41  A    between atoms: _115  and  _119
REMARK   42  A    between atoms: _122  and  _124
REMARK   43  A    between atoms: _124  and  _125
REMARK   44  A    between atoms: _124  and  _127
REMARK   45  A    between atoms: _127  and  _128
REMARK   46  A    between atoms: _133  and  _134
REMARK   47  A    between atoms: _137  and  _138
REMARK   48  A    between atoms: _143  and  _145
REMARK   49  A    between atoms: _145  and  _146
REMARK   50  A    between atoms: _145  and  _148
REMARK   51  A    between atoms: _148  and  _149
REMARK   52  A    between atoms: _150  and  ZN_356
REMARK   53  A    between atoms: _154  and  _156
REMARK   54  A    between atoms: _156  and  _157
REMARK   55  A    between atoms: _159  and  _161
REMARK   56  A    between atoms: _161  and  _162
REMARK   57  A    between atoms: _161  and  _164
REMARK   58  A    between atoms: _164  and  _165
REMARK   59  A    between atoms: _165  and  _166
REMARK   60  A    between atoms: _169  and  _171
REMARK   61  A    between atoms: _171  and  _172
REMARK   62  A    between atoms: _171  and  _174
REMARK   63  A    between atoms: _174  and  _175
REMARK   64  A    between atoms: _175  and  _176
REMARK   65  A    between atoms: _179  and  _181
REMARK   66  A    between atoms: _181  and  _182
REMARK   67  A    between atoms: _181  and  _184
REMARK   68  A    between atoms: _184  and  _185
REMARK   69  A    between atoms: _189  and  ZN_356
REMARK   70  A    between atoms: _190  and  _192
REMARK   71  A    between atoms: _192  and  _193
REMARK   72  A    between atoms: _192  and  _195
REMARK   73  A    between atoms: _195  and  _196
REMARK   74  A    between atoms: _199  and  _201
REMARK   75  A    between atoms: _201  and  _202
REMARK   76  A    between atoms: _201  and  _204
REMARK   77  A    between atoms: _204  and  _205
REMARK   78  A    between atoms: _205  and  _206
REMARK   79  A    between atoms: _211  and  _213
REMARK   80  A    between atoms: _213  and  _214
REMARK   81  A    between atoms: _213  and  _216
REMARK   82  A    between atoms: _216  and  _217
REMARK   83  A    between atoms: _222  and  _224
REMARK   84  A    between atoms: _224  and  _225
REMARK   85  A    between atoms: _224  and  _227
REMARK   86  A    between atoms: _227  and  _228
REMARK   87  A    between atoms: _231  and  _233
REMARK   88  A    between atoms: _233  and  _234
REMARK   89  A    between atoms: _233  and  _236
REMARK   90  A    between atoms: _236  and  _237
REMARK   91  A    between atoms: _242  and  _243
REMARK   92  A    between atoms: _245  and  _247
REMARK   93  A    between atoms: _247  and  _248
REMARK   94  A    between atoms: _247  and  _250
REMARK   95  A    between atoms: _252  and  _254
REMARK   96  A    between atoms: _254  and  _255
REMARK   97  A    between atoms: _254  and  _257
REMARK   98  A    between atoms: _257  and  _258
REMARK   99  A    between atoms: _262  and  _263
REMARK  100  A    between atoms: _268  and  _270
REMARK  101  A    between atoms: _270  and  _271
REMARK  102  A    between atoms: _270  and  _273
REMARK  103  A    between atoms: _273  and  _274
REMARK  104  A    between atoms: _277  and  _279
REMARK  105  A    between atoms: _279  and  _280
REMARK  106  A    between atoms: _279  and  _282
REMARK  107  A    between atoms: _282  and  _283
REMARK  108  A    between atoms: _283  and  _284
REMARK  109  A    between atoms: _284  and  ZN_357
REMARK  110  A    between atoms: _286  and  _288
REMARK  111  A    between atoms: _288  and  _289
REMARK  112  A    between atoms: _288  and  _291
REMARK  113  A    between atoms: _291  and  _292
REMARK  114  A    between atoms: _294  and  _296
REMARK  115  A    between atoms: _296  and  _297
REMARK  116  A    between atoms: _301  and  _302
REMARK  117  A    between atoms: _307  and  _309
REMARK  118  A    between atoms: _309  and  _310
REMARK  119  A    between atoms: _309  and  _312
REMARK  120  A    between atoms: _312  and  _313
REMARK  121  A    between atoms: _318  and  _320
REMARK  122  A    between atoms: _320  and  _321
REMARK  123  A    between atoms: _320  and  _323
REMARK  124  A    between atoms: _323  and  _324
REMARK  125  A    between atoms: _324  and  _325
REMARK  126  A    between atoms: _325  and  _326
REMARK  127  A    between atoms: _326  and  _327
REMARK  128  A    between atoms: _331  and  _333
REMARK  129  A    between atoms: _333  and  _334
REMARK  130  A    between atoms: _333  and  _336
REMARK  131  A    between atoms: _338  and  _340
REMARK  132  A    between atoms: _340  and  _341
REMARK  133  A    between atoms: _344  and  _346
REMARK  134  A    between atoms: _346  and  _347
REMARK  135  A    between atoms: _349  and  _351
REMARK  136  A    between atoms: _351  and  _352
REMARK  137  A    between atoms: _351  and  _354
REMARK                            x       y       z     vdW  Elec       q    Type
REMARK                         _______ _______ _______ _____ _____    ______ ____
ROOT
ATOM      1  O   HOH     1      24.547  45.514  69.453  0.00  0.00    +0.000 OA
ENDROOT
TORSDOF 0
