REMARK  Name = ../refined-set-2016/3u90/3u90_pocket.pdb
REMARK  115 active torsions:
REMARK  status: ('A' for Active; 'I' for Inactive)
REMARK    1  A    between atoms: _1  and  _3
REMARK    2  A    between atoms: _3  and  _4
REMARK    3  A    between atoms: _3  and  _6
REMARK    4  A    between atoms: _6  and  _7
REMARK    5  A    between atoms: _12  and  _13
REMARK    6  A    between atoms: _15  and  _17
REMARK    7  A    between atoms: _17  and  _18
REMARK    8  A    between atoms: _17  and  _20
REMARK    9  A    between atoms: _20  and  _21
REMARK   10  A    between atoms: _24  and  _26
REMARK   11  A    between atoms: _26  and  _27
REMARK   12  A    between atoms: _26  and  _29
REMARK   13  A    between atoms: _29  and  _30
REMARK   14  A    between atoms: _30  and  _31
REMARK   15  A    between atoms: _31  and  _32
REMARK   16  A    between atoms: _41  and  _43
REMARK   17  A    between atoms: _43  and  _44
REMARK   18  A    between atoms: _47  and  _49
REMARK   19  A    between atoms: _49  and  _50
REMARK   20  A    between atoms: _49  and  _52
REMARK   21  A    between atoms: _52  and  _53
REMARK   22  A    between atoms: _55  and  _57
REMARK   23  A    between atoms: _57  and  _58
REMARK   24  A    between atoms: _57  and  _60
REMARK   25  A    between atoms: _60  and  _61
REMARK   26  A    between atoms: _66  and  _67
REMARK   27  A    between atoms: _69  and  _71
REMARK   28  A    between atoms: _71  and  _72
REMARK   29  A    between atoms: _71  and  _74
REMARK   30  A    between atoms: _74  and  _75
REMARK   31  A    between atoms: _78  and  _80
REMARK   32  A    between atoms: _80  and  _81
REMARK   33  A    between atoms: _80  and  _83
REMARK   34  A    between atoms: _83  and  _84
REMARK   35  A    between atoms: _89  and  _90
REMARK   36  A    between atoms: _92  and  _94
REMARK   37  A    between atoms: _94  and  _95
REMARK   38  A    between atoms: _94  and  _97
REMARK   39  A    between atoms: _97  and  _98
REMARK   40  A    between atoms: _101  and  _103
REMARK   41  A    between atoms: _103  and  _104
REMARK   42  A    between atoms: _103  and  _106
REMARK   43  A    between atoms: _106  and  _107
REMARK   44  A    between atoms: _109  and  _111
REMARK   45  A    between atoms: _111  and  _112
REMARK   46  A    between atoms: _111  and  _114
REMARK   47  A    between atoms: _114  and  _115
REMARK   48  A    between atoms: _121  and  _123
REMARK   49  A    between atoms: _123  and  _124
REMARK   50  A    between atoms: _123  and  _126
REMARK   51  A    between atoms: _126  and  _127
REMARK   52  A    between atoms: _133  and  _135
REMARK   53  A    between atoms: _135  and  _136
REMARK   54  A    between atoms: _135  and  _138
REMARK   55  A    between atoms: _138  and  _139
REMARK   56  A    between atoms: _139  and  _140
REMARK   57  A    between atoms: _140  and  _141
REMARK   58  A    between atoms: _150  and  _152
REMARK   59  A    between atoms: _152  and  _153
REMARK   60  A    between atoms: _152  and  _155
REMARK   61  A    between atoms: _155  and  _156
REMARK   62  A    between atoms: _156  and  _157
REMARK   63  A    between atoms: _160  and  _162
REMARK   64  A    between atoms: _162  and  _163
REMARK   65  A    between atoms: _162  and  _165
REMARK   66  A    between atoms: _165  and  _166
REMARK   67  A    between atoms: _169  and  _171
REMARK   68  A    between atoms: _171  and  _172
REMARK   69  A    between atoms: _175  and  _177
REMARK   70  A    between atoms: _177  and  _178
REMARK   71  A    between atoms: _177  and  _180
REMARK   72  A    between atoms: _180  and  _181
REMARK   73  A    between atoms: _181  and  _182
REMARK   74  A    between atoms: _185  and  _187
REMARK   75  A    between atoms: _187  and  _188
REMARK   76  A    between atoms: _187  and  _190
REMARK   77  A    between atoms: _190  and  _191
REMARK   78  A    between atoms: _191  and  _192
REMARK   79  A    between atoms: _195  and  _197
REMARK   80  A    between atoms: _197  and  _198
REMARK   81  A    between atoms: _197  and  _200
REMARK   82  A    between atoms: _200  and  _201
REMARK   83  A    between atoms: _201  and  _202
REMARK   84  A    between atoms: _202  and  _203
REMARK   85  A    between atoms: _203  and  _204
REMARK   86  A    between atoms: _208  and  _210
REMARK   87  A    between atoms: _210  and  _211
REMARK   88  A    between atoms: _210  and  _213
REMARK   89  A    between atoms: _213  and  _214
REMARK   90  A    between atoms: _214  and  _215
REMARK   91  A    between atoms: _215  and  _216
REMARK   92  A    between atoms: _225  and  _227
REMARK   93  A    between atoms: _227  and  _228
REMARK   94  A    between atoms: _227  and  _230
REMARK   95  A    between atoms: _230  and  _231
REMARK   96  A    between atoms: _231  and  _232
REMARK   97  A    between atoms: _235  and  _237
REMARK   98  A    between atoms: _237  and  _238
REMARK   99  A    between atoms: _241  and  _243
REMARK  100  A    between atoms: _243  and  _244
REMARK  101  A    between atoms: _243  and  _246
REMARK  102  A    between atoms: _246  and  _247
REMARK  103  A    between atoms: _247  and  _248
REMARK  104  A    between atoms: _251  and  _253
REMARK  105  A    between atoms: _253  and  _254
REMARK  106  A    between atoms: _253  and  _256
REMARK  107  A    between atoms: _256  and  _257
REMARK  108  A    between atoms: _260  and  _262
REMARK  109  A    between atoms: _262  and  _263
REMARK  110  A    between atoms: _262  and  _265
REMARK  111  A    between atoms: _265  and  _266
REMARK  112  A    between atoms: _272  and  _274
REMARK  113  A    between atoms: _274  and  _275
REMARK  114  A    between atoms: _274  and  _277
REMARK  115  A    between atoms: _277  and  _278
REMARK                            x       y       z     vdW  Elec       q    Type
REMARK                         _______ _______ _______ _____ _____    ______ ____
ROOT
ATOM      1  C   SER A   5      31.177   2.502  39.366  0.00  0.00    +0.243 C 
ATOM      2  N   TYR A   6      32.342   2.275  39.970  0.00  0.00    -0.297 N 
ATOM      3  H   TYR A   6      33.090   2.995  39.904  0.00  0.00    +0.150 HD
ATOM      4  O   SER A   5      30.236   1.698  39.388  0.00  0.00    -0.273 OA
ENDROOT
BRANCH   1   5
ATOM      5  CA  SER A   5      31.049   3.838  38.631  0.00  0.00    +0.178 C 
BRANCH   5   8
ATOM      6  C   ALA A   4      31.195   5.177  40.637  0.00  0.00    +0.241 C 
ATOM      7  O   ALA A   4      30.253   4.566  41.138  0.00  0.00    -0.273 OA
ATOM      8  N   SER A   5      31.641   4.919  39.416  0.00  0.00    -0.295 N 
ATOM      9  H   SER A   5      32.414   5.487  39.015  0.00  0.00    +0.150 HD
BRANCH   6  10
ATOM     10  CA  ALA A   4      31.916   6.280  41.411  0.00  0.00    +0.149 C 
ATOM     11  CB  ALA A   4      31.458   7.653  40.932  0.00  0.00    +0.031 C 
BRANCH  10  14
ATOM     12  C   ARG A   3      34.025   5.074  41.690  0.00  0.00    +0.241 C 
ATOM     13  O   ARG A   3      33.482   4.137  42.284  0.00  0.00    -0.273 OA
ATOM     14  N   ALA A   4      33.362   6.147  41.254  0.00  0.00    -0.297 N 
ATOM     15  H   ALA A   4      33.891   6.912  40.788  0.00  0.00    +0.150 HD
BRANCH  12  16
ATOM     16  CA  ARG A   3      35.529   5.076  41.434  0.00  0.00    +0.149 C 
BRANCH  16  18
ATOM     17  C   LEU A   2      35.299   4.873  39.019  0.00  0.00    +0.241 C 
ATOM     18  N   ARG A   3      35.798   5.531  40.068  0.00  0.00    -0.297 N 
ATOM     19  H   ARG A   3      36.384   6.376  39.914  0.00  0.00    +0.150 HD
ATOM     20  O   LEU A   2      34.659   3.838  39.143  0.00  0.00    -0.273 OA
BRANCH  17  21
ATOM     21  CA  LEU A   2      35.538   5.465  37.629  0.00  0.00    +0.149 C 
BRANCH  21  24
ATOM     22  C   TYR A   1      34.280   7.505  37.929  0.00  0.00    +0.239 C 
ATOM     23  O   TYR A   1      33.241   6.860  38.073  0.00  0.00    -0.274 OA
ATOM     24  N   LEU A   2      35.444   6.923  37.656  0.00  0.00    -0.297 N 
ATOM     25  H   LEU A   2      36.285   7.504  37.462  0.00  0.00    +0.150 HD
BRANCH  22  26
ATOM     26  CA  TYR A   1      34.276   9.031  38.053  0.00  0.00    +0.149 C 
BRANCH  26  27
ATOM     27  N   TYR A   1      35.440   9.547  38.779  0.00  0.00    -0.238 NA
ATOM     28  H   TYR A   1      36.157  10.098  38.265  0.00  0.00    +0.142 HD
ENDBRANCH  26  27
BRANCH  26  29
ATOM     29  CB  TYR A   1      34.130   9.706  36.678  0.00  0.00    +0.053 C 
BRANCH  29  30
ATOM     30  CG  TYR A   1      33.234  10.923  36.744  0.00  0.00    -0.020 A 
ATOM     31  CD2 TYR A   1      33.681  12.108  37.317  0.00  0.00    -0.001 A 
ATOM     32  CE2 TYR A   1      32.849  13.218  37.400  0.00  0.00    +0.036 A 
ATOM     33  CZ  TYR A   1      31.549  13.133  36.930  0.00  0.00    +0.134 A 
ATOM     34  CE1 TYR A   1      31.077  11.968  36.366  0.00  0.00    +0.036 A 
ATOM     35  CD1 TYR A   1      31.920  10.867  36.280  0.00  0.00    -0.001 A 
BRANCH  33  36
ATOM     36  OH  TYR A   1      30.723  14.223  37.015  0.00  0.00    -0.506 OA
ATOM     37  HH  TYR A   1      29.837  13.994  36.637  0.00  0.00    +0.292 HD
ENDBRANCH  33  36
ENDBRANCH  29  30
ENDBRANCH  26  29
ENDBRANCH  22  26
ENDBRANCH  21  24
BRANCH  21  38
ATOM     38  CB  LEU A   2      36.884   5.008  37.058  0.00  0.00    +0.029 C 
BRANCH  38  39
ATOM     39  CG  LEU A   2      37.109   5.343  35.573  0.00  0.00    +0.002 C 
ATOM     40  CD2 LEU A   2      38.523   4.970  35.153  0.00  0.00    +0.000 C 
ATOM     41  CD1 LEU A   2      36.072   4.644  34.686  0.00  0.00    +0.000 C 
ENDBRANCH  38  39
ENDBRANCH  21  38
ENDBRANCH  17  21
ENDBRANCH  16  18
BRANCH  16  42
ATOM     42  CB  ARG A   3      36.198   5.995  42.463  0.00  0.00    +0.033 C 
BRANCH  42  43
ATOM     43  CG  ARG A   3      37.670   5.698  42.745  0.00  0.00    +0.045 C 
BRANCH  43  44
ATOM     44  CD  ARG A   3      38.276   6.771  43.668  0.00  0.00    +0.174 C 
BRANCH  44  45
ATOM     45  NE  ARG A   3      37.547   6.888  44.930  0.00  0.00    -0.265 N 
ATOM     46  CZ  ARG A   3      37.688   7.892  45.793  0.00  0.00    +0.342 C 
ATOM     47  NH2 ARG A   3      36.972   7.903  46.913  0.00  0.00    -0.292 N 
ATOM     48 HH21 ARG A   3      37.078   8.685  47.590  0.00  0.00    +0.255 HD
ATOM     49 HH22 ARG A   3      36.306   7.130  47.112  0.00  0.00    +0.255 HD
ATOM     50  NH1 ARG A   3      38.546   8.881  45.546  0.00  0.00    -0.292 N 
ATOM     51 HH11 ARG A   3      38.650   9.661  46.226  0.00  0.00    +0.255 HD
ATOM     52 HH12 ARG A   3      39.112   8.873  44.674  0.00  0.00    +0.255 HD
ATOM     53  HE  ARG A   3      36.871   6.135  45.170  0.00  0.00    +0.259 HD
ENDBRANCH  44  45
ENDBRANCH  43  44
ENDBRANCH  42  43
ENDBRANCH  16  42
ENDBRANCH  12  16
ENDBRANCH  10  14
ENDBRANCH   6  10
ENDBRANCH   5   8
BRANCH   5  54
ATOM     54  CB  SER A   5      31.706   3.758  37.255  0.00  0.00    +0.166 C 
BRANCH  54  55
ATOM     55  OG  SER A   5      31.087   2.764  36.464  0.00  0.00    -0.380 OA
ATOM     56  H   SER A   5      30.129   2.984  36.350  0.00  0.00    +0.211 HD
ENDBRANCH  54  55
ENDBRANCH   5  54
ENDBRANCH   1   5
BRANCH   2  57
ATOM     57  CA  TYR A   6      32.608   1.042  40.727  0.00  0.00    +0.153 C 
BRANCH  57  58
ATOM     58  C   TYR A   6      31.675   0.964  41.932  0.00  0.00    +0.241 C 
ATOM     59  N   THR A   7      31.503   2.086  42.623  0.00  0.00    -0.295 N 
ATOM     60  H   THR A   7      32.011   2.947  42.338  0.00  0.00    +0.150 HD
ATOM     61  O   TYR A   6      31.134  -0.088  42.249  0.00  0.00    -0.273 OA
BRANCH  59  62
ATOM     62  CA  THR A   7      30.612   2.125  43.775  0.00  0.00    +0.176 C 
BRANCH  62  63
ATOM     63  C   THR A   7      29.173   1.755  43.368  0.00  0.00    +0.243 C 
ATOM     64  O   THR A   7      28.505   0.971  44.043  0.00  0.00    -0.273 OA
ATOM     65  N   TYR A   8      28.707   2.299  42.249  0.00  0.00    -0.297 N 
ATOM     66  H   TYR A   8      29.307   2.947  41.699  0.00  0.00    +0.150 HD
BRANCH  65  67
ATOM     67  CA  TYR A   8      27.352   1.991  41.786  0.00  0.00    +0.153 C 
BRANCH  67  68
ATOM     68  C   TYR A   8      27.203   0.550  41.314  0.00  0.00    +0.241 C 
ATOM     69  O   TYR A   8      26.126  -0.024  41.424  0.00  0.00    -0.273 OA
ATOM     70  N   LEU A   9      28.268  -0.022  40.755  0.00  0.00    -0.297 N 
ATOM     71  H   LEU A   9      29.131   0.537  40.599  0.00  0.00    +0.150 HD
BRANCH  70  72
ATOM     72  CA  LEU A   9      28.235  -1.434  40.358  0.00  0.00    +0.149 C 
BRANCH  72  73
ATOM     73  C   LEU A   9      27.990  -2.271  41.615  0.00  0.00    +0.241 C 
ATOM     74  N   SER A  10      28.697  -1.922  42.687  0.00  0.00    -0.296 N 
ATOM     75  H   SER A  10      29.363  -1.126  42.620  0.00  0.00    +0.150 HD
ATOM     76  O   LEU A   9      27.180  -3.206  41.616  0.00  0.00    -0.273 OA
BRANCH  74  77
ATOM     77  CA  SER A  10      28.557  -2.636  43.960  0.00  0.00    +0.166 C 
BRANCH  77  78
ATOM     78  CB  SER A  10      27.156  -2.465  44.534  0.00  0.00    +0.229 C 
ATOM     79  OG  SER A  10      26.534  -3.428  45.006  0.00  0.00    -0.286 OA
ENDBRANCH  77  78
BRANCH  77  80
ATOM     80  C   SER A  10      29.586  -2.139  44.974  0.00  0.00    +0.165 C 
BRANCH  80  81
ATOM     81  O   SER A  10      29.418  -2.798  46.217  0.00  0.00    -0.380 OA
ATOM     82  H   SER A  10      30.092  -2.464  46.860  0.00  0.00    +0.211 HD
ENDBRANCH  80  81
ENDBRANCH  77  80
ENDBRANCH  74  77
ENDBRANCH  72  73
BRANCH  72  83
ATOM     83  CB  LEU A   9      29.563  -1.850  39.714  0.00  0.00    +0.029 C 
BRANCH  83  84
ATOM     84  CG  LEU A   9      29.645  -3.312  39.255  0.00  0.00    +0.002 C 
ATOM     85  CD2 LEU A   9      31.073  -3.696  38.840  0.00  0.00    +0.000 C 
ATOM     86  CD1 LEU A   9      28.673  -3.539  38.098  0.00  0.00    +0.000 C 
ENDBRANCH  83  84
ENDBRANCH  72  83
ENDBRANCH  70  72
ENDBRANCH  67  68
BRANCH  67  87
ATOM     87  CB  TYR A   8      26.917   2.955  40.683  0.00  0.00    +0.055 C 
BRANCH  87  88
ATOM     88  CG  TYR A   8      26.560   4.325  41.208  0.00  0.00    -0.020 A 
ATOM     89  CD2 TYR A   8      25.696   4.463  42.285  0.00  0.00    -0.001 A 
ATOM     90  CE2 TYR A   8      25.362   5.711  42.787  0.00  0.00    +0.036 A 
ATOM     91  CZ  TYR A   8      25.902   6.846  42.217  0.00  0.00    +0.134 A 
ATOM     92  CE1 TYR A   8      26.777   6.743  41.147  0.00  0.00    +0.036 A 
ATOM     93  CD1 TYR A   8      27.106   5.478  40.648  0.00  0.00    -0.001 A 
BRANCH  91  94
ATOM     94  OH  TYR A   8      25.556   8.082  42.735  0.00  0.00    -0.506 OA
ATOM     95  HH  TYR A   8      25.124   8.625  42.029  0.00  0.00    +0.292 HD
ENDBRANCH  91  94
ENDBRANCH  87  88
ENDBRANCH  67  87
ENDBRANCH  65  67
ENDBRANCH  62  63
BRANCH  62  96
ATOM     96  CB  THR A   7      30.672   3.506  44.461  0.00  0.00    +0.137 C 
ATOM     97  CG2 THR A   7      29.631   3.615  45.586  0.00  0.00    +0.034 C 
BRANCH  96  98
ATOM     98  OG1 THR A   7      31.990   3.697  45.010  0.00  0.00    -0.382 OA
ATOM     99  HG1 THR A   7      32.037   4.581  45.452  0.00  0.00    +0.210 HD
ENDBRANCH  96  98
ENDBRANCH  62  96
ENDBRANCH  59  62
ENDBRANCH  57  58
BRANCH  57 100
ATOM    100  CB  TYR A   6      34.069   1.047  41.216  0.00  0.00    +0.055 C 
BRANCH 100 101
ATOM    101  CG  TYR A   6      34.695  -0.313  41.520  0.00  0.00    -0.020 A 
ATOM    102  CD2 TYR A   6      35.922  -0.388  42.166  0.00  0.00    -0.001 A 
ATOM    103  CE2 TYR A   6      36.527  -1.612  42.453  0.00  0.00    +0.036 A 
ATOM    104  CZ  TYR A   6      35.907  -2.793  42.102  0.00  0.00    +0.134 A 
ATOM    105  CE1 TYR A   6      34.681  -2.763  41.457  0.00  0.00    +0.036 A 
ATOM    106  CD1 TYR A   6      34.068  -1.510  41.171  0.00  0.00    -0.001 A 
BRANCH 104 107
ATOM    107  OH  TYR A   6      36.543  -3.990  42.406  0.00  0.00    -0.506 OA
ATOM    108  HH  TYR A   6      35.985  -4.747  42.097  0.00  0.00    +0.292 HD
ENDBRANCH 104 107
ENDBRANCH 100 101
ENDBRANCH  57 100
ENDBRANCH   2  57
TORSDOF 43
REMARK  Name = ../refined-set-2016/3u90/3u90_pocket.pdb
REMARK  115 active torsions:
REMARK  status: ('A' for Active; 'I' for Inactive)
REMARK    1  A    between atoms: _1  and  _3
REMARK    2  A    between atoms: _3  and  _4
REMARK    3  A    between atoms: _3  and  _6
REMARK    4  A    between atoms: _6  and  _7
REMARK    5  A    between atoms: _12  and  _13
REMARK    6  A    between atoms: _15  and  _17
REMARK    7  A    between atoms: _17  and  _18
REMARK    8  A    between atoms: _17  and  _20
REMARK    9  A    between atoms: _20  and  _21
REMARK   10  A    between atoms: _24  and  _26
REMARK   11  A    between atoms: _26  and  _27
REMARK   12  A    between atoms: _26  and  _29
REMARK   13  A    between atoms: _29  and  _30
REMARK   14  A    between atoms: _30  and  _31
REMARK   15  A    between atoms: _31  and  _32
REMARK   16  A    between atoms: _41  and  _43
REMARK   17  A    between atoms: _43  and  _44
REMARK   18  A    between atoms: _47  and  _49
REMARK   19  A    between atoms: _49  and  _50
REMARK   20  A    between atoms: _49  and  _52
REMARK   21  A    between atoms: _52  and  _53
REMARK   22  A    between atoms: _55  and  _57
REMARK   23  A    between atoms: _57  and  _58
REMARK   24  A    between atoms: _57  and  _60
REMARK   25  A    between atoms: _60  and  _61
REMARK   26  A    between atoms: _66  and  _67
REMARK   27  A    between atoms: _69  and  _71
REMARK   28  A    between atoms: _71  and  _72
REMARK   29  A    between atoms: _71  and  _74
REMARK   30  A    between atoms: _74  and  _75
REMARK   31  A    between atoms: _78  and  _80
REMARK   32  A    between atoms: _80  and  _81
REMARK   33  A    between atoms: _80  and  _83
REMARK   34  A    between atoms: _83  and  _84
REMARK   35  A    between atoms: _89  and  _90
REMARK   36  A    between atoms: _92  and  _94
REMARK   37  A    between atoms: _94  and  _95
REMARK   38  A    between atoms: _94  and  _97
REMARK   39  A    between atoms: _97  and  _98
REMARK   40  A    between atoms: _101  and  _103
REMARK   41  A    between atoms: _103  and  _104
REMARK   42  A    between atoms: _103  and  _106
REMARK   43  A    between atoms: _106  and  _107
REMARK   44  A    between atoms: _109  and  _111
REMARK   45  A    between atoms: _111  and  _112
REMARK   46  A    between atoms: _111  and  _114
REMARK   47  A    between atoms: _114  and  _115
REMARK   48  A    between atoms: _121  and  _123
REMARK   49  A    between atoms: _123  and  _124
REMARK   50  A    between atoms: _123  and  _126
REMARK   51  A    between atoms: _126  and  _127
REMARK   52  A    between atoms: _133  and  _135
REMARK   53  A    between atoms: _135  and  _136
REMARK   54  A    between atoms: _135  and  _138
REMARK   55  A    between atoms: _138  and  _139
REMARK   56  A    between atoms: _139  and  _140
REMARK   57  A    between atoms: _140  and  _141
REMARK   58  A    between atoms: _150  and  _152
REMARK   59  A    between atoms: _152  and  _153
REMARK   60  A    between atoms: _152  and  _155
REMARK   61  A    between atoms: _155  and  _156
REMARK   62  A    between atoms: _156  and  _157
REMARK   63  A    between atoms: _160  and  _162
REMARK   64  A    between atoms: _162  and  _163
REMARK   65  A    between atoms: _162  and  _165
REMARK   66  A    between atoms: _165  and  _166
REMARK   67  A    between atoms: _169  and  _171
REMARK   68  A    between atoms: _171  and  _172
REMARK   69  A    between atoms: _175  and  _177
REMARK   70  A    between atoms: _177  and  _178
REMARK   71  A    between atoms: _177  and  _180
REMARK   72  A    between atoms: _180  and  _181
REMARK   73  A    between atoms: _181  and  _182
REMARK   74  A    between atoms: _185  and  _187
REMARK   75  A    between atoms: _187  and  _188
REMARK   76  A    between atoms: _187  and  _190
REMARK   77  A    between atoms: _190  and  _191
REMARK   78  A    between atoms: _191  and  _192
REMARK   79  A    between atoms: _195  and  _197
REMARK   80  A    between atoms: _197  and  _198
REMARK   81  A    between atoms: _197  and  _200
REMARK   82  A    between atoms: _200  and  _201
REMARK   83  A    between atoms: _201  and  _202
REMARK   84  A    between atoms: _202  and  _203
REMARK   85  A    between atoms: _203  and  _204
REMARK   86  A    between atoms: _208  and  _210
REMARK   87  A    between atoms: _210  and  _211
REMARK   88  A    between atoms: _210  and  _213
REMARK   89  A    between atoms: _213  and  _214
REMARK   90  A    between atoms: _214  and  _215
REMARK   91  A    between atoms: _215  and  _216
REMARK   92  A    between atoms: _225  and  _227
REMARK   93  A    between atoms: _227  and  _228
REMARK   94  A    between atoms: _227  and  _230
REMARK   95  A    between atoms: _230  and  _231
REMARK   96  A    between atoms: _231  and  _232
REMARK   97  A    between atoms: _235  and  _237
REMARK   98  A    between atoms: _237  and  _238
REMARK   99  A    between atoms: _241  and  _243
REMARK  100  A    between atoms: _243  and  _244
REMARK  101  A    between atoms: _243  and  _246
REMARK  102  A    between atoms: _246  and  _247
REMARK  103  A    between atoms: _247  and  _248
REMARK  104  A    between atoms: _251  and  _253
REMARK  105  A    between atoms: _253  and  _254
REMARK  106  A    between atoms: _253  and  _256
REMARK  107  A    between atoms: _256  and  _257
REMARK  108  A    between atoms: _260  and  _262
REMARK  109  A    between atoms: _262  and  _263
REMARK  110  A    between atoms: _262  and  _265
REMARK  111  A    between atoms: _265  and  _266
REMARK  112  A    between atoms: _272  and  _274
REMARK  113  A    between atoms: _274  and  _275
REMARK  114  A    between atoms: _274  and  _277
REMARK  115  A    between atoms: _277  and  _278
REMARK                            x       y       z     vdW  Elec       q    Type
REMARK                         _______ _______ _______ _____ _____    ______ ____
ROOT
ATOM      1  CB  PHE A   1      25.893  -6.672  42.213  0.00  0.00    +0.051 C 
ENDROOT
BRANCH   1   2
ATOM      2  CG  PHE A   1      25.934  -6.912  40.740  0.00  0.00    -0.020 A 
ATOM      3  CD2 PHE A   1      25.305  -8.026  40.189  0.00  0.00    -0.004 A 
ATOM      4  CE2 PHE A   1      25.308  -8.239  38.829  0.00  0.00    -0.000 A 
ATOM      5  CZ  PHE A   1      25.937  -7.330  37.996  0.00  0.00    -0.000 A 
ATOM      6  CE1 PHE A   1      26.557  -6.210  38.535  0.00  0.00    -0.000 A 
ATOM      7  CD1 PHE A   1      26.544  -6.004  39.897  0.00  0.00    -0.004 A 
ENDBRANCH   1   2
BRANCH   1   8
ATOM      8  CA  PHE A   1      24.588  -6.013  42.659  0.00  0.00    +0.137 C 
BRANCH   8   9
ATOM      9  N   PHE A   1      24.588  -4.588  42.404  0.00  0.00    -0.239 NA
ATOM     10  H   PHE A   1      25.484  -4.070  42.303  0.00  0.00    +0.142 HD
ENDBRANCH   8   9
BRANCH   8  11
ATOM     11  C   PHE A   1      24.179  -6.392  44.069  0.00  0.00    +0.224 C 
ATOM     12  O   PHE A   1      23.659  -7.477  44.274  0.00  0.00    -0.287 OA
ENDBRANCH   8  11
ENDBRANCH   1   8
TORSDOF 4
REMARK  Name = ../refined-set-2016/3u90/3u90_pocket.pdb
REMARK  115 active torsions:
REMARK  status: ('A' for Active; 'I' for Inactive)
REMARK    1  A    between atoms: _1  and  _3
REMARK    2  A    between atoms: _3  and  _4
REMARK    3  A    between atoms: _3  and  _6
REMARK    4  A    between atoms: _6  and  _7
REMARK    5  A    between atoms: _12  and  _13
REMARK    6  A    between atoms: _15  and  _17
REMARK    7  A    between atoms: _17  and  _18
REMARK    8  A    between atoms: _17  and  _20
REMARK    9  A    between atoms: _20  and  _21
REMARK   10  A    between atoms: _24  and  _26
REMARK   11  A    between atoms: _26  and  _27
REMARK   12  A    between atoms: _26  and  _29
REMARK   13  A    between atoms: _29  and  _30
REMARK   14  A    between atoms: _30  and  _31
REMARK   15  A    between atoms: _31  and  _32
REMARK   16  A    between atoms: _41  and  _43
REMARK   17  A    between atoms: _43  and  _44
REMARK   18  A    between atoms: _47  and  _49
REMARK   19  A    between atoms: _49  and  _50
REMARK   20  A    between atoms: _49  and  _52
REMARK   21  A    between atoms: _52  and  _53
REMARK   22  A    between atoms: _55  and  _57
REMARK   23  A    between atoms: _57  and  _58
REMARK   24  A    between atoms: _57  and  _60
REMARK   25  A    between atoms: _60  and  _61
REMARK   26  A    between atoms: _66  and  _67
REMARK   27  A    between atoms: _69  and  _71
REMARK   28  A    between atoms: _71  and  _72
REMARK   29  A    between atoms: _71  and  _74
REMARK   30  A    between atoms: _74  and  _75
REMARK   31  A    between atoms: _78  and  _80
REMARK   32  A    between atoms: _80  and  _81
REMARK   33  A    between atoms: _80  and  _83
REMARK   34  A    between atoms: _83  and  _84
REMARK   35  A    between atoms: _89  and  _90
REMARK   36  A    between atoms: _92  and  _94
REMARK   37  A    between atoms: _94  and  _95
REMARK   38  A    between atoms: _94  and  _97
REMARK   39  A    between atoms: _97  and  _98
REMARK   40  A    between atoms: _101  and  _103
REMARK   41  A    between atoms: _103  and  _104
REMARK   42  A    between atoms: _103  and  _106
REMARK   43  A    between atoms: _106  and  _107
REMARK   44  A    between atoms: _109  and  _111
REMARK   45  A    between atoms: _111  and  _112
REMARK   46  A    between atoms: _111  and  _114
REMARK   47  A    between atoms: _114  and  _115
REMARK   48  A    between atoms: _121  and  _123
REMARK   49  A    between atoms: _123  and  _124
REMARK   50  A    between atoms: _123  and  _126
REMARK   51  A    between atoms: _126  and  _127
REMARK   52  A    between atoms: _133  and  _135
REMARK   53  A    between atoms: _135  and  _136
REMARK   54  A    between atoms: _135  and  _138
REMARK   55  A    between atoms: _138  and  _139
REMARK   56  A    between atoms: _139  and  _140
REMARK   57  A    between atoms: _140  and  _141
REMARK   58  A    between atoms: _150  and  _152
REMARK   59  A    between atoms: _152  and  _153
REMARK   60  A    between atoms: _152  and  _155
REMARK   61  A    between atoms: _155  and  _156
REMARK   62  A    between atoms: _156  and  _157
REMARK   63  A    between atoms: _160  and  _162
REMARK   64  A    between atoms: _162  and  _163
REMARK   65  A    between atoms: _162  and  _165
REMARK   66  A    between atoms: _165  and  _166
REMARK   67  A    between atoms: _169  and  _171
REMARK   68  A    between atoms: _171  and  _172
REMARK   69  A    between atoms: _175  and  _177
REMARK   70  A    between atoms: _177  and  _178
REMARK   71  A    between atoms: _177  and  _180
REMARK   72  A    between atoms: _180  and  _181
REMARK   73  A    between atoms: _181  and  _182
REMARK   74  A    between atoms: _185  and  _187
REMARK   75  A    between atoms: _187  and  _188
REMARK   76  A    between atoms: _187  and  _190
REMARK   77  A    between atoms: _190  and  _191
REMARK   78  A    between atoms: _191  and  _192
REMARK   79  A    between atoms: _195  and  _197
REMARK   80  A    between atoms: _197  and  _198
REMARK   81  A    between atoms: _197  and  _200
REMARK   82  A    between atoms: _200  and  _201
REMARK   83  A    between atoms: _201  and  _202
REMARK   84  A    between atoms: _202  and  _203
REMARK   85  A    between atoms: _203  and  _204
REMARK   86  A    between atoms: _208  and  _210
REMARK   87  A    between atoms: _210  and  _211
REMARK   88  A    between atoms: _210  and  _213
REMARK   89  A    between atoms: _213  and  _214
REMARK   90  A    between atoms: _214  and  _215
REMARK   91  A    between atoms: _215  and  _216
REMARK   92  A    between atoms: _225  and  _227
REMARK   93  A    between atoms: _227  and  _228
REMARK   94  A    between atoms: _227  and  _230
REMARK   95  A    between atoms: _230  and  _231
REMARK   96  A    between atoms: _231  and  _232
REMARK   97  A    between atoms: _235  and  _237
REMARK   98  A    between atoms: _237  and  _238
REMARK   99  A    between atoms: _241  and  _243
REMARK  100  A    between atoms: _243  and  _244
REMARK  101  A    between atoms: _243  and  _246
REMARK  102  A    between atoms: _246  and  _247
REMARK  103  A    between atoms: _247  and  _248
REMARK  104  A    between atoms: _251  and  _253
REMARK  105  A    between atoms: _253  and  _254
REMARK  106  A    between atoms: _253  and  _256
REMARK  107  A    between atoms: _256  and  _257
REMARK  108  A    between atoms: _260  and  _262
REMARK  109  A    between atoms: _262  and  _263
REMARK  110  A    between atoms: _262  and  _265
REMARK  111  A    between atoms: _265  and  _266
REMARK  112  A    between atoms: _272  and  _274
REMARK  113  A    between atoms: _274  and  _275
REMARK  114  A    between atoms: _274  and  _277
REMARK  115  A    between atoms: _277  and  _278
REMARK                            x       y       z     vdW  Elec       q    Type
REMARK                         _______ _______ _______ _____ _____    ______ ____
ROOT
ATOM      1  CA  GLU A   6      26.923   3.255  33.376  0.00  0.00    +0.149 C 
ENDROOT
BRANCH   1   4
ATOM      2  C   ALA A   5      27.637   3.253  35.690  0.00  0.00    +0.241 C 
ATOM      3  O   ALA A   5      28.744   3.700  35.397  0.00  0.00    -0.273 OA
ATOM      4  N   GLU A   6      26.693   3.024  34.790  0.00  0.00    -0.297 N 
ATOM      5  H   GLU A   6      25.766   2.671  35.103  0.00  0.00    +0.150 HD
BRANCH   2   6
ATOM      6  CA  ALA A   5      27.253   2.952  37.135  0.00  0.00    +0.149 C 
ATOM      7  CB  ALA A   5      27.320   1.444  37.402  0.00  0.00    +0.031 C 
BRANCH   6   9
ATOM      8  C   LEU A   4      25.626   4.743  37.171  0.00  0.00    +0.241 C 
ATOM      9  N   ALA A   5      25.908   3.461  37.386  0.00  0.00    -0.297 N 
ATOM     10  H   ALA A   5      25.168   2.819  37.734  0.00  0.00    +0.150 HD
ATOM     11  O   LEU A   4      26.483   5.557  36.835  0.00  0.00    -0.273 OA
BRANCH   8  12
ATOM     12  CA  LEU A   4      24.174   5.180  37.357  0.00  0.00    +0.149 C 
BRANCH  12  14
ATOM     13  C   GLU A   3      23.135   3.815  35.633  0.00  0.00    +0.241 C 
ATOM     14  N   LEU A   4      23.231   4.149  36.917  0.00  0.00    -0.297 N 
ATOM     15  H   LEU A   4      22.629   3.672  37.618  0.00  0.00    +0.150 HD
ATOM     16  O   GLU A   3      23.790   4.374  34.748  0.00  0.00    -0.273 OA
BRANCH  13  17
ATOM     17  CA  GLU A   3      22.175   2.673  35.295  0.00  0.00    +0.149 C 
BRANCH  17  19
ATOM     18  C   ARG A   2      23.306   0.911  36.494  0.00  0.00    +0.241 C 
ATOM     19  N   GLU A   3      22.205   1.633  36.323  0.00  0.00    -0.297 N 
ATOM     20  H   GLU A   3      21.369   1.460  36.917  0.00  0.00    +0.150 HD
ATOM     21  O   ARG A   2      24.314   1.089  35.821  0.00  0.00    -0.273 OA
BRANCH  18  22
ATOM     22  CA  ARG A   2      23.291  -0.137  37.615  0.00  0.00    +0.149 C 
BRANCH  22  25
ATOM     23  C   PHE A   1      22.974   1.433  39.413  0.00  0.00    +0.239 C 
ATOM     24  O   PHE A   1      23.975   2.039  39.052  0.00  0.00    -0.274 OA
ATOM     25  N   ARG A   2      22.555   0.337  38.787  0.00  0.00    -0.297 N 
ATOM     26  H   ARG A   2      21.716  -0.176  39.126  0.00  0.00    +0.150 HD
BRANCH  23  27
ATOM     27  CA  PHE A   1      22.143   1.950  40.585  0.00  0.00    +0.149 C 
BRANCH  27  28
ATOM     28  N   PHE A   1      20.707   1.820  40.353  0.00  0.00    -0.238 NA
ATOM     29  H   PHE A   1      20.168   1.074  40.837  0.00  0.00    +0.142 HD
ENDBRANCH  27  28
BRANCH  27  30
ATOM     30  CB  PHE A   1      22.538   1.308  41.918  0.00  0.00    +0.053 C 
BRANCH  30  31
ATOM     31  CG  PHE A   1      22.089   2.106  43.120  0.00  0.00    -0.020 A 
ATOM     32  CD2 PHE A   1      21.345   1.514  44.131  0.00  0.00    -0.004 A 
ATOM     33  CE2 PHE A   1      20.933   2.247  45.234  0.00  0.00    -0.000 A 
ATOM     34  CZ  PHE A   1      21.247   3.588  45.322  0.00  0.00    -0.000 A 
ATOM     35  CE1 PHE A   1      21.979   4.193  44.304  0.00  0.00    -0.000 A 
ATOM     36  CD1 PHE A   1      22.379   3.459  43.212  0.00  0.00    -0.004 A 
ENDBRANCH  30  31
ENDBRANCH  27  30
ENDBRANCH  23  27
ENDBRANCH  22  25
BRANCH  22  37
ATOM     37  CB  ARG A   2      22.769  -1.492  37.124  0.00  0.00    +0.033 C 
BRANCH  37  38
ATOM     38  CG  ARG A   2      23.082  -2.621  38.110  0.00  0.00    +0.045 C 
BRANCH  38  39
ATOM     39  CD  ARG A   2      22.747  -3.988  37.544  0.00  0.00    +0.174 C 
BRANCH  39  40
ATOM     40  NE  ARG A   2      23.687  -4.410  36.511  0.00  0.00    -0.265 N 
ATOM     41  HE  ARG A   2      24.524  -3.818  36.338  0.00  0.00    +0.259 HD
ATOM     42  CZ  ARG A   2      23.534  -5.509  35.779  0.00  0.00    +0.342 C 
ATOM     43  NH2 ARG A   2      22.478  -6.294  35.974  0.00  0.00    -0.292 N 
ATOM     44 HH21 ARG A   2      21.774  -6.048  36.698  0.00  0.00    +0.255 HD
ATOM     45 HH22 ARG A   2      22.357  -7.154  35.402  0.00  0.00    +0.255 HD
ATOM     46  NH1 ARG A   2      24.433  -5.823  34.852  0.00  0.00    -0.292 N 
ATOM     47 HH11 ARG A   2      25.258  -5.209  34.698  0.00  0.00    +0.255 HD
ATOM     48 HH12 ARG A   2      24.312  -6.683  34.280  0.00  0.00    +0.255 HD
ENDBRANCH  39  40
ENDBRANCH  38  39
ENDBRANCH  37  38
ENDBRANCH  22  37
ENDBRANCH  18  22
ENDBRANCH  17  19
BRANCH  17  49
ATOM     49  CB  GLU A   3      20.766   3.220  35.082  0.00  0.00    +0.041 C 
BRANCH  49  50
ATOM     50  CG  GLU A   3      20.738   4.309  34.022  0.00  0.00    +0.116 C 
BRANCH  50  51
ATOM     51  CD  GLU A   3      21.351   3.844  32.704  0.00  0.00    +0.365 C 
ATOM     52  OE2 GLU A   3      22.333   4.477  32.231  0.00  0.00    -0.246 OA
ATOM     53  OE1 GLU A   3      20.858   2.829  32.154  0.00  0.00    -0.246 OA
ENDBRANCH  50  51
ENDBRANCH  49  50
ENDBRANCH  17  49
ENDBRANCH  13  17
ENDBRANCH  12  14
BRANCH  12  54
ATOM     54  CB  LEU A   4      23.915   5.583  38.811  0.00  0.00    +0.029 C 
BRANCH  54  55
ATOM     55  CG  LEU A   4      22.649   6.400  39.053  0.00  0.00    +0.002 C 
ATOM     56  CD2 LEU A   4      22.496   6.702  40.530  0.00  0.00    +0.000 C 
ATOM     57  CD1 LEU A   4      22.670   7.690  38.227  0.00  0.00    +0.000 C 
ENDBRANCH  54  55
ENDBRANCH  12  54
ENDBRANCH   8  12
ENDBRANCH   6   9
ENDBRANCH   2   6
ENDBRANCH   1   4
BRANCH   1  58
ATOM     58  C   GLU A   6      27.123   4.740  33.077  0.00  0.00    +0.241 C 
ATOM     59  N   GLU A   7      26.270   5.592  33.637  0.00  0.00    -0.297 N 
ATOM     60  H   GLU A   7      25.483   5.229  34.213  0.00  0.00    +0.150 HD
ATOM     61  O   GLU A   6      28.044   5.106  32.349  0.00  0.00    -0.273 OA
BRANCH  59  62
ATOM     62  CA  GLU A   7      26.427   7.036  33.451  0.00  0.00    +0.149 C 
BRANCH  62  63
ATOM     63  C   GLU A   7      27.813   7.528  33.909  0.00  0.00    +0.241 C 
ATOM     64  N   LYS A   8      28.293   7.008  35.033  0.00  0.00    -0.297 N 
ATOM     65  H   LYS A   8      27.770   6.256  35.525  0.00  0.00    +0.150 HD
ATOM     66  O   GLU A   7      28.438   8.370  33.253  0.00  0.00    -0.273 OA
BRANCH  64  67
ATOM     67  CA  LYS A   8      29.556   7.495  35.576  0.00  0.00    +0.149 C 
BRANCH  67  68
ATOM     68  C   LYS A   8      30.710   7.031  34.710  0.00  0.00    +0.241 C 
ATOM     69  O   LYS A   8      31.674   7.764  34.514  0.00  0.00    -0.273 OA
ATOM     70  N   ARG A   9      30.616   5.810  34.193  0.00  0.00    -0.297 N 
ATOM     71  H   ARG A   9      29.805   5.205  34.434  0.00  0.00    +0.150 HD
BRANCH  70  72
ATOM     72  CA  ARG A   9      31.647   5.320  33.290  0.00  0.00    +0.149 C 
BRANCH  72  73
ATOM     73  C   ARG A   9      31.701   6.180  32.037  0.00  0.00    +0.241 C 
ATOM     74  N   GLU A  10      30.529   6.568  31.547  0.00  0.00    -0.298 N 
ATOM     75  H   GLU A  10      29.653   6.272  32.023  0.00  0.00    +0.150 HD
ATOM     76  O   ARG A   9      32.780   6.476  31.513  0.00  0.00    -0.273 OA
BRANCH  74  77
ATOM     77  CA  GLU A  10      30.450   7.403  30.352  0.00  0.00    +0.137 C 
BRANCH  77  78
ATOM     78  C   GLU A  10      31.020   8.795  30.600  0.00  0.00    +0.227 C 
ATOM     79  O   GLU A  10      31.618   9.397  29.700  0.00  0.00    -0.286 OA
ENDBRANCH  77  78
BRANCH  77  80
ATOM     80  CB  GLU A  10      29.007   7.467  29.842  0.00  0.00    +0.039 C 
BRANCH  80  81
ATOM     81  CG  GLU A  10      28.531   6.117  29.331  0.00  0.00    +0.116 C 
BRANCH  81  82
ATOM     82  CD  GLU A  10      27.060   6.104  28.986  0.00  0.00    +0.365 C 
ATOM     83  OE2 GLU A  10      26.329   6.979  29.495  0.00  0.00    -0.246 OA
ATOM     84  OE1 GLU A  10      26.638   5.211  28.217  0.00  0.00    -0.246 OA
ENDBRANCH  81  82
ENDBRANCH  80  81
ENDBRANCH  77  80
ENDBRANCH  74  77
ENDBRANCH  72  73
BRANCH  72  85
ATOM     85  CB  ARG A   9      31.399   3.867  32.902  0.00  0.00    +0.033 C 
BRANCH  85  86
ATOM     86  CG  ARG A   9      32.476   3.341  31.980  0.00  0.00    +0.045 C 
BRANCH  86  87
ATOM     87  CD  ARG A   9      32.175   1.953  31.490  0.00  0.00    +0.174 C 
BRANCH  87  88
ATOM     88  NE  ARG A   9      30.786   1.812  31.073  0.00  0.00    -0.265 N 
ATOM     89  HE  ARG A   9      30.139   1.306  31.711  0.00  0.00    +0.259 HD
ATOM     90  CZ  ARG A   9      30.287   2.285  29.935  0.00  0.00    +0.342 C 
ATOM     91  NH2 ARG A   9      29.005   2.096  29.652  0.00  0.00    -0.292 N 
ATOM     92 HH21 ARG A   9      28.396   1.580  30.319  0.00  0.00    +0.255 HD
ATOM     93 HH22 ARG A   9      28.609   2.464  28.763  0.00  0.00    +0.255 HD
ATOM     94  NH1 ARG A   9      31.057   2.960  29.085  0.00  0.00    -0.292 N 
ATOM     95 HH11 ARG A   9      32.060   3.122  29.308  0.00  0.00    +0.255 HD
ATOM     96 HH12 ARG A   9      30.656   3.325  28.198  0.00  0.00    +0.255 HD
ENDBRANCH  87  88
ENDBRANCH  86  87
ENDBRANCH  85  86
ENDBRANCH  72  85
ENDBRANCH  70  72
ENDBRANCH  67  68
BRANCH  67  97
ATOM     97  CB  LYS A   8      29.755   7.055  37.031  0.00  0.00    +0.029 C 
BRANCH  97  98
ATOM     98  CG  LYS A   8      28.721   7.652  37.985  0.00  0.00    +0.000 C 
BRANCH  98  99
ATOM     99  CD  LYS A   8      28.646   9.166  37.825  0.00  0.00    -0.024 C 
BRANCH  99 100
ATOM    100  CE  LYS A   8      27.551   9.738  38.703  0.00  0.00    -0.086 C 
BRANCH 100 101
ATOM    101  NZ  LYS A   8      27.162  11.124  38.345  0.00  0.00    +0.380 N 
ATOM    102  HZ1 LYS A   8      26.410  11.448  38.986  0.00  0.00    -0.089 HD
ATOM    103  HZ2 LYS A   8      27.989  11.749  38.434  0.00  0.00    -0.089 HD
ATOM    104  HZ3 LYS A   8      26.815  11.143  37.365  0.00  0.00    -0.089 HD
ENDBRANCH 100 101
ENDBRANCH  99 100
ENDBRANCH  98  99
ENDBRANCH  97  98
ENDBRANCH  67  97
ENDBRANCH  64  67
ENDBRANCH  62  63
BRANCH  62 105
ATOM    105  CB  GLU A   7      25.313   7.807  34.170  0.00  0.00    +0.041 C 
BRANCH 105 106
ATOM    106  CG  GLU A   7      23.917   7.518  33.628  0.00  0.00    +0.116 C 
BRANCH 106 107
ATOM    107  CD  GLU A   7      23.859   7.666  32.120  0.00  0.00    +0.365 C 
ATOM    108  OE2 GLU A   7      24.097   8.790  31.630  0.00  0.00    -0.246 OA
ATOM    109  OE1 GLU A   7      23.609   6.652  31.428  0.00  0.00    -0.246 OA
ENDBRANCH 106 107
ENDBRANCH 105 106
ENDBRANCH  62 105
ENDBRANCH  59  62
ENDBRANCH   1  58
BRANCH   1 110
ATOM    110  CB  GLU A   6      25.765   2.679  32.552  0.00  0.00    +0.041 C 
BRANCH 110 111
ATOM    111  CG  GLU A   6      25.690   3.196  31.137  0.00  0.00    +0.116 C 
BRANCH 111 112
ATOM    112  CD  GLU A   6      24.607   2.496  30.334  0.00  0.00    +0.365 C 
ATOM    113  OE2 GLU A   6      24.092   1.455  30.809  0.00  0.00    -0.246 OA
ATOM    114  OE1 GLU A   6      24.276   2.988  29.233  0.00  0.00    -0.246 OA
ENDBRANCH 111 112
ENDBRANCH 110 111
ENDBRANCH   1 110
TORSDOF 49
REMARK  Name = ../refined-set-2016/3u90/3u90_pocket.pdb
REMARK  115 active torsions:
REMARK  status: ('A' for Active; 'I' for Inactive)
REMARK    1  A    between atoms: _1  and  _3
REMARK    2  A    between atoms: _3  and  _4
REMARK    3  A    between atoms: _3  and  _6
REMARK    4  A    between atoms: _6  and  _7
REMARK    5  A    between atoms: _12  and  _13
REMARK    6  A    between atoms: _15  and  _17
REMARK    7  A    between atoms: _17  and  _18
REMARK    8  A    between atoms: _17  and  _20
REMARK    9  A    between atoms: _20  and  _21
REMARK   10  A    between atoms: _24  and  _26
REMARK   11  A    between atoms: _26  and  _27
REMARK   12  A    between atoms: _26  and  _29
REMARK   13  A    between atoms: _29  and  _30
REMARK   14  A    between atoms: _30  and  _31
REMARK   15  A    between atoms: _31  and  _32
REMARK   16  A    between atoms: _41  and  _43
REMARK   17  A    between atoms: _43  and  _44
REMARK   18  A    between atoms: _47  and  _49
REMARK   19  A    between atoms: _49  and  _50
REMARK   20  A    between atoms: _49  and  _52
REMARK   21  A    between atoms: _52  and  _53
REMARK   22  A    between atoms: _55  and  _57
REMARK   23  A    between atoms: _57  and  _58
REMARK   24  A    between atoms: _57  and  _60
REMARK   25  A    between atoms: _60  and  _61
REMARK   26  A    between atoms: _66  and  _67
REMARK   27  A    between atoms: _69  and  _71
REMARK   28  A    between atoms: _71  and  _72
REMARK   29  A    between atoms: _71  and  _74
REMARK   30  A    between atoms: _74  and  _75
REMARK   31  A    between atoms: _78  and  _80
REMARK   32  A    between atoms: _80  and  _81
REMARK   33  A    between atoms: _80  and  _83
REMARK   34  A    between atoms: _83  and  _84
REMARK   35  A    between atoms: _89  and  _90
REMARK   36  A    between atoms: _92  and  _94
REMARK   37  A    between atoms: _94  and  _95
REMARK   38  A    between atoms: _94  and  _97
REMARK   39  A    between atoms: _97  and  _98
REMARK   40  A    between atoms: _101  and  _103
REMARK   41  A    between atoms: _103  and  _104
REMARK   42  A    between atoms: _103  and  _106
REMARK   43  A    between atoms: _106  and  _107
REMARK   44  A    between atoms: _109  and  _111
REMARK   45  A    between atoms: _111  and  _112
REMARK   46  A    between atoms: _111  and  _114
REMARK   47  A    between atoms: _114  and  _115
REMARK   48  A    between atoms: _121  and  _123
REMARK   49  A    between atoms: _123  and  _124
REMARK   50  A    between atoms: _123  and  _126
REMARK   51  A    between atoms: _126  and  _127
REMARK   52  A    between atoms: _133  and  _135
REMARK   53  A    between atoms: _135  and  _136
REMARK   54  A    between atoms: _135  and  _138
REMARK   55  A    between atoms: _138  and  _139
REMARK   56  A    between atoms: _139  and  _140
REMARK   57  A    between atoms: _140  and  _141
REMARK   58  A    between atoms: _150  and  _152
REMARK   59  A    between atoms: _152  and  _153
REMARK   60  A    between atoms: _152  and  _155
REMARK   61  A    between atoms: _155  and  _156
REMARK   62  A    between atoms: _156  and  _157
REMARK   63  A    between atoms: _160  and  _162
REMARK   64  A    between atoms: _162  and  _163
REMARK   65  A    between atoms: _162  and  _165
REMARK   66  A    between atoms: _165  and  _166
REMARK   67  A    between atoms: _169  and  _171
REMARK   68  A    between atoms: _171  and  _172
REMARK   69  A    between atoms: _175  and  _177
REMARK   70  A    between atoms: _177  and  _178
REMARK   71  A    between atoms: _177  and  _180
REMARK   72  A    between atoms: _180  and  _181
REMARK   73  A    between atoms: _181  and  _182
REMARK   74  A    between atoms: _185  and  _187
REMARK   75  A    between atoms: _187  and  _188
REMARK   76  A    between atoms: _187  and  _190
REMARK   77  A    between atoms: _190  and  _191
REMARK   78  A    between atoms: _191  and  _192
REMARK   79  A    between atoms: _195  and  _197
REMARK   80  A    between atoms: _197  and  _198
REMARK   81  A    between atoms: _197  and  _200
REMARK   82  A    between atoms: _200  and  _201
REMARK   83  A    between atoms: _201  and  _202
REMARK   84  A    between atoms: _202  and  _203
REMARK   85  A    between atoms: _203  and  _204
REMARK   86  A    between atoms: _208  and  _210
REMARK   87  A    between atoms: _210  and  _211
REMARK   88  A    between atoms: _210  and  _213
REMARK   89  A    between atoms: _213  and  _214
REMARK   90  A    between atoms: _214  and  _215
REMARK   91  A    between atoms: _215  and  _216
REMARK   92  A    between atoms: _225  and  _227
REMARK   93  A    between atoms: _227  and  _228
REMARK   94  A    between atoms: _227  and  _230
REMARK   95  A    between atoms: _230  and  _231
REMARK   96  A    between atoms: _231  and  _232
REMARK   97  A    between atoms: _235  and  _237
REMARK   98  A    between atoms: _237  and  _238
REMARK   99  A    between atoms: _241  and  _243
REMARK  100  A    between atoms: _243  and  _244
REMARK  101  A    between atoms: _243  and  _246
REMARK  102  A    between atoms: _246  and  _247
REMARK  103  A    between atoms: _247  and  _248
REMARK  104  A    between atoms: _251  and  _253
REMARK  105  A    between atoms: _253  and  _254
REMARK  106  A    between atoms: _253  and  _256
REMARK  107  A    between atoms: _256  and  _257
REMARK  108  A    between atoms: _260  and  _262
REMARK  109  A    between atoms: _262  and  _263
REMARK  110  A    between atoms: _262  and  _265
REMARK  111  A    between atoms: _265  and  _266
REMARK  112  A    between atoms: _272  and  _274
REMARK  113  A    between atoms: _274  and  _275
REMARK  114  A    between atoms: _274  and  _277
REMARK  115  A    between atoms: _277  and  _278
REMARK                            x       y       z     vdW  Elec       q    Type
REMARK                         _______ _______ _______ _____ _____    ______ ____
ROOT
ATOM      1  C   ALA A   1      35.427   9.150  31.121  0.00  0.00    +0.238 C 
ATOM      2  O   ALA A   1      36.444   9.761  30.791  0.00  0.00    -0.274 OA
ATOM      3  N   GLU A   2      34.697   8.455  30.250  0.00  0.00    -0.298 N 
ATOM      4  H   GLU A   2      33.846   7.954  30.575  0.00  0.00    +0.150 HD
ENDROOT
BRANCH   1   5
ATOM      5  CA  ALA A   1      34.953   9.175  32.578  0.00  0.00    +0.145 C 
ATOM      6  CB  ALA A   1      35.344   7.880  33.301  0.00  0.00    +0.028 C 
BRANCH   5   7
ATOM      7  N   ALA A   1      33.517   9.406  32.683  0.00  0.00    -0.238 NA
ATOM      8  H   ALA A   1      32.924   8.724  33.197  0.00  0.00    +0.142 HD
ENDBRANCH   5   7
ENDBRANCH   1   5
BRANCH   3   9
ATOM      9  CA  GLU A   2      35.081   8.390  28.843  0.00  0.00    +0.137 C 
BRANCH   9  10
ATOM     10  C   GLU A   2      35.022   9.756  28.167  0.00  0.00    +0.227 C 
ATOM     11  O   GLU A   2      35.857  10.071  27.334  0.00  0.00    -0.286 OA
ENDBRANCH   9  10
BRANCH   9  12
ATOM     12  CB  GLU A   2      34.231   7.368  28.071  0.00  0.00    +0.039 C 
BRANCH  12  13
ATOM     13  CG  GLU A   2      34.455   5.928  28.532  0.00  0.00    +0.116 C 
BRANCH  13  14
ATOM     14  CD  GLU A   2      33.617   4.921  27.755  0.00  0.00    +0.365 C 
ATOM     15  OE2 GLU A   2      33.485   3.776  28.235  0.00  0.00    -0.246 OA
ATOM     16  OE1 GLU A   2      33.096   5.269  26.672  0.00  0.00    -0.246 OA
ENDBRANCH  13  14
ENDBRANCH  12  13
ENDBRANCH   9  12
ENDBRANCH   3   9
TORSDOF 7
REMARK  Name = ../refined-set-2016/3u90/3u90_pocket.pdb
REMARK  115 active torsions:
REMARK  status: ('A' for Active; 'I' for Inactive)
REMARK    1  A    between atoms: _1  and  _3
REMARK    2  A    between atoms: _3  and  _4
REMARK    3  A    between atoms: _3  and  _6
REMARK    4  A    between atoms: _6  and  _7
REMARK    5  A    between atoms: _12  and  _13
REMARK    6  A    between atoms: _15  and  _17
REMARK    7  A    between atoms: _17  and  _18
REMARK    8  A    between atoms: _17  and  _20
REMARK    9  A    between atoms: _20  and  _21
REMARK   10  A    between atoms: _24  and  _26
REMARK   11  A    between atoms: _26  and  _27
REMARK   12  A    between atoms: _26  and  _29
REMARK   13  A    between atoms: _29  and  _30
REMARK   14  A    between atoms: _30  and  _31
REMARK   15  A    between atoms: _31  and  _32
REMARK   16  A    between atoms: _41  and  _43
REMARK   17  A    between atoms: _43  and  _44
REMARK   18  A    between atoms: _47  and  _49
REMARK   19  A    between atoms: _49  and  _50
REMARK   20  A    between atoms: _49  and  _52
REMARK   21  A    between atoms: _52  and  _53
REMARK   22  A    between atoms: _55  and  _57
REMARK   23  A    between atoms: _57  and  _58
REMARK   24  A    between atoms: _57  and  _60
REMARK   25  A    between atoms: _60  and  _61
REMARK   26  A    between atoms: _66  and  _67
REMARK   27  A    between atoms: _69  and  _71
REMARK   28  A    between atoms: _71  and  _72
REMARK   29  A    between atoms: _71  and  _74
REMARK   30  A    between atoms: _74  and  _75
REMARK   31  A    between atoms: _78  and  _80
REMARK   32  A    between atoms: _80  and  _81
REMARK   33  A    between atoms: _80  and  _83
REMARK   34  A    between atoms: _83  and  _84
REMARK   35  A    between atoms: _89  and  _90
REMARK   36  A    between atoms: _92  and  _94
REMARK   37  A    between atoms: _94  and  _95
REMARK   38  A    between atoms: _94  and  _97
REMARK   39  A    between atoms: _97  and  _98
REMARK   40  A    between atoms: _101  and  _103
REMARK   41  A    between atoms: _103  and  _104
REMARK   42  A    between atoms: _103  and  _106
REMARK   43  A    between atoms: _106  and  _107
REMARK   44  A    between atoms: _109  and  _111
REMARK   45  A    between atoms: _111  and  _112
REMARK   46  A    between atoms: _111  and  _114
REMARK   47  A    between atoms: _114  and  _115
REMARK   48  A    between atoms: _121  and  _123
REMARK   49  A    between atoms: _123  and  _124
REMARK   50  A    between atoms: _123  and  _126
REMARK   51  A    between atoms: _126  and  _127
REMARK   52  A    between atoms: _133  and  _135
REMARK   53  A    between atoms: _135  and  _136
REMARK   54  A    between atoms: _135  and  _138
REMARK   55  A    between atoms: _138  and  _139
REMARK   56  A    between atoms: _139  and  _140
REMARK   57  A    between atoms: _140  and  _141
REMARK   58  A    between atoms: _150  and  _152
REMARK   59  A    between atoms: _152  and  _153
REMARK   60  A    between atoms: _152  and  _155
REMARK   61  A    between atoms: _155  and  _156
REMARK   62  A    between atoms: _156  and  _157
REMARK   63  A    between atoms: _160  and  _162
REMARK   64  A    between atoms: _162  and  _163
REMARK   65  A    between atoms: _162  and  _165
REMARK   66  A    between atoms: _165  and  _166
REMARK   67  A    between atoms: _169  and  _171
REMARK   68  A    between atoms: _171  and  _172
REMARK   69  A    between atoms: _175  and  _177
REMARK   70  A    between atoms: _177  and  _178
REMARK   71  A    between atoms: _177  and  _180
REMARK   72  A    between atoms: _180  and  _181
REMARK   73  A    between atoms: _181  and  _182
REMARK   74  A    between atoms: _185  and  _187
REMARK   75  A    between atoms: _187  and  _188
REMARK   76  A    between atoms: _187  and  _190
REMARK   77  A    between atoms: _190  and  _191
REMARK   78  A    between atoms: _191  and  _192
REMARK   79  A    between atoms: _195  and  _197
REMARK   80  A    between atoms: _197  and  _198
REMARK   81  A    between atoms: _197  and  _200
REMARK   82  A    between atoms: _200  and  _201
REMARK   83  A    between atoms: _201  and  _202
REMARK   84  A    between atoms: _202  and  _203
REMARK   85  A    between atoms: _203  and  _204
REMARK   86  A    between atoms: _208  and  _210
REMARK   87  A    between atoms: _210  and  _211
REMARK   88  A    between atoms: _210  and  _213
REMARK   89  A    between atoms: _213  and  _214
REMARK   90  A    between atoms: _214  and  _215
REMARK   91  A    between atoms: _215  and  _216
REMARK   92  A    between atoms: _225  and  _227
REMARK   93  A    between atoms: _227  and  _228
REMARK   94  A    between atoms: _227  and  _230
REMARK   95  A    between atoms: _230  and  _231
REMARK   96  A    between atoms: _231  and  _232
REMARK   97  A    between atoms: _235  and  _237
REMARK   98  A    between atoms: _237  and  _238
REMARK   99  A    between atoms: _241  and  _243
REMARK  100  A    between atoms: _243  and  _244
REMARK  101  A    between atoms: _243  and  _246
REMARK  102  A    between atoms: _246  and  _247
REMARK  103  A    between atoms: _247  and  _248
REMARK  104  A    between atoms: _251  and  _253
REMARK  105  A    between atoms: _253  and  _254
REMARK  106  A    between atoms: _253  and  _256
REMARK  107  A    between atoms: _256  and  _257
REMARK  108  A    between atoms: _260  and  _262
REMARK  109  A    between atoms: _262  and  _263
REMARK  110  A    between atoms: _262  and  _265
REMARK  111  A    between atoms: _265  and  _266
REMARK  112  A    between atoms: _272  and  _274
REMARK  113  A    between atoms: _274  and  _275
REMARK  114  A    between atoms: _274  and  _277
REMARK  115  A    between atoms: _277  and  _278
REMARK                            x       y       z     vdW  Elec       q    Type
REMARK                         _______ _______ _______ _____ _____    ______ ____
ROOT
ATOM      1  CA  LEU A   1      39.264  11.009  28.525  0.00  0.00    +0.133 C 
ENDROOT
BRANCH   1   2
ATOM      2  N   LEU A   1      38.099  11.575  29.200  0.00  0.00    -0.239 NA
ATOM      3  H   LEU A   1      37.339  10.941  29.520  0.00  0.00    +0.142 HD
ENDBRANCH   1   2
BRANCH   1   4
ATOM      4  C   LEU A   1      39.351  11.483  27.074  0.00  0.00    +0.224 C 
ATOM      5  O   LEU A   1      40.425  11.832  26.582  0.00  0.00    -0.287 OA
ENDBRANCH   1   4
BRANCH   1   6
ATOM      6  CB  LEU A   1      39.227   9.478  28.599  0.00  0.00    +0.025 C 
BRANCH   6   7
ATOM      7  CG  LEU A   1      39.524   8.905  29.993  0.00  0.00    +0.002 C 
ATOM      8  CD2 LEU A   1      40.997   9.159  30.370  0.00  0.00    +0.000 C 
ATOM      9  CD1 LEU A   1      39.213   7.411  30.034  0.00  0.00    +0.000 C 
ENDBRANCH   6   7
ENDBRANCH   1   6
TORSDOF 4
REMARK  Name = ../refined-set-2016/3u90/3u90_pocket.pdb
REMARK  115 active torsions:
REMARK  status: ('A' for Active; 'I' for Inactive)
REMARK    1  A    between atoms: _1  and  _3
REMARK    2  A    between atoms: _3  and  _4
REMARK    3  A    between atoms: _3  and  _6
REMARK    4  A    between atoms: _6  and  _7
REMARK    5  A    between atoms: _12  and  _13
REMARK    6  A    between atoms: _15  and  _17
REMARK    7  A    between atoms: _17  and  _18
REMARK    8  A    between atoms: _17  and  _20
REMARK    9  A    between atoms: _20  and  _21
REMARK   10  A    between atoms: _24  and  _26
REMARK   11  A    between atoms: _26  and  _27
REMARK   12  A    between atoms: _26  and  _29
REMARK   13  A    between atoms: _29  and  _30
REMARK   14  A    between atoms: _30  and  _31
REMARK   15  A    between atoms: _31  and  _32
REMARK   16  A    between atoms: _41  and  _43
REMARK   17  A    between atoms: _43  and  _44
REMARK   18  A    between atoms: _47  and  _49
REMARK   19  A    between atoms: _49  and  _50
REMARK   20  A    between atoms: _49  and  _52
REMARK   21  A    between atoms: _52  and  _53
REMARK   22  A    between atoms: _55  and  _57
REMARK   23  A    between atoms: _57  and  _58
REMARK   24  A    between atoms: _57  and  _60
REMARK   25  A    between atoms: _60  and  _61
REMARK   26  A    between atoms: _66  and  _67
REMARK   27  A    between atoms: _69  and  _71
REMARK   28  A    between atoms: _71  and  _72
REMARK   29  A    between atoms: _71  and  _74
REMARK   30  A    between atoms: _74  and  _75
REMARK   31  A    between atoms: _78  and  _80
REMARK   32  A    between atoms: _80  and  _81
REMARK   33  A    between atoms: _80  and  _83
REMARK   34  A    between atoms: _83  and  _84
REMARK   35  A    between atoms: _89  and  _90
REMARK   36  A    between atoms: _92  and  _94
REMARK   37  A    between atoms: _94  and  _95
REMARK   38  A    between atoms: _94  and  _97
REMARK   39  A    between atoms: _97  and  _98
REMARK   40  A    between atoms: _101  and  _103
REMARK   41  A    between atoms: _103  and  _104
REMARK   42  A    between atoms: _103  and  _106
REMARK   43  A    between atoms: _106  and  _107
REMARK   44  A    between atoms: _109  and  _111
REMARK   45  A    between atoms: _111  and  _112
REMARK   46  A    between atoms: _111  and  _114
REMARK   47  A    between atoms: _114  and  _115
REMARK   48  A    between atoms: _121  and  _123
REMARK   49  A    between atoms: _123  and  _124
REMARK   50  A    between atoms: _123  and  _126
REMARK   51  A    between atoms: _126  and  _127
REMARK   52  A    between atoms: _133  and  _135
REMARK   53  A    between atoms: _135  and  _136
REMARK   54  A    between atoms: _135  and  _138
REMARK   55  A    between atoms: _138  and  _139
REMARK   56  A    between atoms: _139  and  _140
REMARK   57  A    between atoms: _140  and  _141
REMARK   58  A    between atoms: _150  and  _152
REMARK   59  A    between atoms: _152  and  _153
REMARK   60  A    between atoms: _152  and  _155
REMARK   61  A    between atoms: _155  and  _156
REMARK   62  A    between atoms: _156  and  _157
REMARK   63  A    between atoms: _160  and  _162
REMARK   64  A    between atoms: _162  and  _163
REMARK   65  A    between atoms: _162  and  _165
REMARK   66  A    between atoms: _165  and  _166
REMARK   67  A    between atoms: _169  and  _171
REMARK   68  A    between atoms: _171  and  _172
REMARK   69  A    between atoms: _175  and  _177
REMARK   70  A    between atoms: _177  and  _178
REMARK   71  A    between atoms: _177  and  _180
REMARK   72  A    between atoms: _180  and  _181
REMARK   73  A    between atoms: _181  and  _182
REMARK   74  A    between atoms: _185  and  _187
REMARK   75  A    between atoms: _187  and  _188
REMARK   76  A    between atoms: _187  and  _190
REMARK   77  A    between atoms: _190  and  _191
REMARK   78  A    between atoms: _191  and  _192
REMARK   79  A    between atoms: _195  and  _197
REMARK   80  A    between atoms: _197  and  _198
REMARK   81  A    between atoms: _197  and  _200
REMARK   82  A    between atoms: _200  and  _201
REMARK   83  A    between atoms: _201  and  _202
REMARK   84  A    between atoms: _202  and  _203
REMARK   85  A    between atoms: _203  and  _204
REMARK   86  A    between atoms: _208  and  _210
REMARK   87  A    between atoms: _210  and  _211
REMARK   88  A    between atoms: _210  and  _213
REMARK   89  A    between atoms: _213  and  _214
REMARK   90  A    between atoms: _214  and  _215
REMARK   91  A    between atoms: _215  and  _216
REMARK   92  A    between atoms: _225  and  _227
REMARK   93  A    between atoms: _227  and  _228
REMARK   94  A    between atoms: _227  and  _230
REMARK   95  A    between atoms: _230  and  _231
REMARK   96  A    between atoms: _231  and  _232
REMARK   97  A    between atoms: _235  and  _237
REMARK   98  A    between atoms: _237  and  _238
REMARK   99  A    between atoms: _241  and  _243
REMARK  100  A    between atoms: _243  and  _244
REMARK  101  A    between atoms: _243  and  _246
REMARK  102  A    between atoms: _246  and  _247
REMARK  103  A    between atoms: _247  and  _248
REMARK  104  A    between atoms: _251  and  _253
REMARK  105  A    between atoms: _253  and  _254
REMARK  106  A    between atoms: _253  and  _256
REMARK  107  A    between atoms: _256  and  _257
REMARK  108  A    between atoms: _260  and  _262
REMARK  109  A    between atoms: _262  and  _263
REMARK  110  A    between atoms: _262  and  _265
REMARK  111  A    between atoms: _265  and  _266
REMARK  112  A    between atoms: _272  and  _274
REMARK  113  A    between atoms: _274  and  _275
REMARK  114  A    between atoms: _274  and  _277
REMARK  115  A    between atoms: _277  and  _278
REMARK                            x       y       z     vdW  Elec       q    Type
REMARK                         _______ _______ _______ _____ _____    ______ ____
ROOT
ATOM      1  CB  PHE A   1      44.902   4.887  34.268  0.00  0.00    +0.051 C 
ENDROOT
BRANCH   1   2
ATOM      2  CG  PHE A   1      44.106   5.235  33.055  0.00  0.00    -0.020 A 
ATOM      3  CD2 PHE A   1      42.804   5.689  33.178  0.00  0.00    -0.004 A 
ATOM      4  CE2 PHE A   1      42.067   6.026  32.057  0.00  0.00    -0.000 A 
ATOM      5  CZ  PHE A   1      42.640   5.926  30.798  0.00  0.00    -0.000 A 
ATOM      6  CE1 PHE A   1      43.944   5.500  30.665  0.00  0.00    -0.000 A 
ATOM      7  CD1 PHE A   1      44.673   5.156  31.794  0.00  0.00    -0.004 A 
ENDBRANCH   1   2
BRANCH   1   8
ATOM      8  CA  PHE A   1      45.427   6.112  35.012  0.00  0.00    +0.137 C 
BRANCH   8   9
ATOM      9  N   PHE A   1      46.334   6.871  34.169  0.00  0.00    -0.239 NA
ATOM     10  H   PHE A   1      46.985   6.370  33.531  0.00  0.00    +0.142 HD
ENDBRANCH   8   9
BRANCH   8  11
ATOM     11  C   PHE A   1      46.096   5.712  36.314  0.00  0.00    +0.224 C 
ATOM     12  O   PHE A   1      47.307   5.501  36.360  0.00  0.00    -0.287 OA
ENDBRANCH   8  11
ENDBRANCH   1   8
TORSDOF 4
REMARK  Name = ../refined-set-2016/3u90/3u90_pocket.pdb
REMARK  115 active torsions:
REMARK  status: ('A' for Active; 'I' for Inactive)
REMARK    1  A    between atoms: _1  and  _3
REMARK    2  A    between atoms: _3  and  _4
REMARK    3  A    between atoms: _3  and  _6
REMARK    4  A    between atoms: _6  and  _7
REMARK    5  A    between atoms: _12  and  _13
REMARK    6  A    between atoms: _15  and  _17
REMARK    7  A    between atoms: _17  and  _18
REMARK    8  A    between atoms: _17  and  _20
REMARK    9  A    between atoms: _20  and  _21
REMARK   10  A    between atoms: _24  and  _26
REMARK   11  A    between atoms: _26  and  _27
REMARK   12  A    between atoms: _26  and  _29
REMARK   13  A    between atoms: _29  and  _30
REMARK   14  A    between atoms: _30  and  _31
REMARK   15  A    between atoms: _31  and  _32
REMARK   16  A    between atoms: _41  and  _43
REMARK   17  A    between atoms: _43  and  _44
REMARK   18  A    between atoms: _47  and  _49
REMARK   19  A    between atoms: _49  and  _50
REMARK   20  A    between atoms: _49  and  _52
REMARK   21  A    between atoms: _52  and  _53
REMARK   22  A    between atoms: _55  and  _57
REMARK   23  A    between atoms: _57  and  _58
REMARK   24  A    between atoms: _57  and  _60
REMARK   25  A    between atoms: _60  and  _61
REMARK   26  A    between atoms: _66  and  _67
REMARK   27  A    between atoms: _69  and  _71
REMARK   28  A    between atoms: _71  and  _72
REMARK   29  A    between atoms: _71  and  _74
REMARK   30  A    between atoms: _74  and  _75
REMARK   31  A    between atoms: _78  and  _80
REMARK   32  A    between atoms: _80  and  _81
REMARK   33  A    between atoms: _80  and  _83
REMARK   34  A    between atoms: _83  and  _84
REMARK   35  A    between atoms: _89  and  _90
REMARK   36  A    between atoms: _92  and  _94
REMARK   37  A    between atoms: _94  and  _95
REMARK   38  A    between atoms: _94  and  _97
REMARK   39  A    between atoms: _97  and  _98
REMARK   40  A    between atoms: _101  and  _103
REMARK   41  A    between atoms: _103  and  _104
REMARK   42  A    between atoms: _103  and  _106
REMARK   43  A    between atoms: _106  and  _107
REMARK   44  A    between atoms: _109  and  _111
REMARK   45  A    between atoms: _111  and  _112
REMARK   46  A    between atoms: _111  and  _114
REMARK   47  A    between atoms: _114  and  _115
REMARK   48  A    between atoms: _121  and  _123
REMARK   49  A    between atoms: _123  and  _124
REMARK   50  A    between atoms: _123  and  _126
REMARK   51  A    between atoms: _126  and  _127
REMARK   52  A    between atoms: _133  and  _135
REMARK   53  A    between atoms: _135  and  _136
REMARK   54  A    between atoms: _135  and  _138
REMARK   55  A    between atoms: _138  and  _139
REMARK   56  A    between atoms: _139  and  _140
REMARK   57  A    between atoms: _140  and  _141
REMARK   58  A    between atoms: _150  and  _152
REMARK   59  A    between atoms: _152  and  _153
REMARK   60  A    between atoms: _152  and  _155
REMARK   61  A    between atoms: _155  and  _156
REMARK   62  A    between atoms: _156  and  _157
REMARK   63  A    between atoms: _160  and  _162
REMARK   64  A    between atoms: _162  and  _163
REMARK   65  A    between atoms: _162  and  _165
REMARK   66  A    between atoms: _165  and  _166
REMARK   67  A    between atoms: _169  and  _171
REMARK   68  A    between atoms: _171  and  _172
REMARK   69  A    between atoms: _175  and  _177
REMARK   70  A    between atoms: _177  and  _178
REMARK   71  A    between atoms: _177  and  _180
REMARK   72  A    between atoms: _180  and  _181
REMARK   73  A    between atoms: _181  and  _182
REMARK   74  A    between atoms: _185  and  _187
REMARK   75  A    between atoms: _187  and  _188
REMARK   76  A    between atoms: _187  and  _190
REMARK   77  A    between atoms: _190  and  _191
REMARK   78  A    between atoms: _191  and  _192
REMARK   79  A    between atoms: _195  and  _197
REMARK   80  A    between atoms: _197  and  _198
REMARK   81  A    between atoms: _197  and  _200
REMARK   82  A    between atoms: _200  and  _201
REMARK   83  A    between atoms: _201  and  _202
REMARK   84  A    between atoms: _202  and  _203
REMARK   85  A    between atoms: _203  and  _204
REMARK   86  A    between atoms: _208  and  _210
REMARK   87  A    between atoms: _210  and  _211
REMARK   88  A    between atoms: _210  and  _213
REMARK   89  A    between atoms: _213  and  _214
REMARK   90  A    between atoms: _214  and  _215
REMARK   91  A    between atoms: _215  and  _216
REMARK   92  A    between atoms: _225  and  _227
REMARK   93  A    between atoms: _227  and  _228
REMARK   94  A    between atoms: _227  and  _230
REMARK   95  A    between atoms: _230  and  _231
REMARK   96  A    between atoms: _231  and  _232
REMARK   97  A    between atoms: _235  and  _237
REMARK   98  A    between atoms: _237  and  _238
REMARK   99  A    between atoms: _241  and  _243
REMARK  100  A    between atoms: _243  and  _244
REMARK  101  A    between atoms: _243  and  _246
REMARK  102  A    between atoms: _246  and  _247
REMARK  103  A    between atoms: _247  and  _248
REMARK  104  A    between atoms: _251  and  _253
REMARK  105  A    between atoms: _253  and  _254
REMARK  106  A    between atoms: _253  and  _256
REMARK  107  A    between atoms: _256  and  _257
REMARK  108  A    between atoms: _260  and  _262
REMARK  109  A    between atoms: _262  and  _263
REMARK  110  A    between atoms: _262  and  _265
REMARK  111  A    between atoms: _265  and  _266
REMARK  112  A    between atoms: _272  and  _274
REMARK  113  A    between atoms: _274  and  _275
REMARK  114  A    between atoms: _274  and  _277
REMARK  115  A    between atoms: _277  and  _278
REMARK                            x       y       z     vdW  Elec       q    Type
REMARK                         _______ _______ _______ _____ _____    ______ ____
ROOT
ATOM      1  CA  LEU A   1      40.920   2.400  41.555  0.00  0.00    +0.133 C 
ENDROOT
BRANCH   1   2
ATOM      2  N   LEU A   1      42.284   2.064  41.194  0.00  0.00    -0.239 NA
ATOM      3  H   LEU A   1      42.497   1.098  40.874  0.00  0.00    +0.142 HD
ENDBRANCH   1   2
BRANCH   1   4
ATOM      4  C   LEU A   1      40.580   1.752  42.884  0.00  0.00    +0.224 C 
ATOM      5  O   LEU A   1      40.555   0.519  43.004  0.00  0.00    -0.287 OA
ENDBRANCH   1   4
BRANCH   1   6
ATOM      6  CB  LEU A   1      39.947   1.908  40.479  0.00  0.00    +0.025 C 
BRANCH   6   7
ATOM      7  CG  LEU A   1      40.000   2.631  39.131  0.00  0.00    +0.002 C 
ATOM      8  CD2 LEU A   1      39.567   4.083  39.285  0.00  0.00    +0.000 C 
ATOM      9  CD1 LEU A   1      39.109   1.907  38.125  0.00  0.00    +0.000 C 
ENDBRANCH   6   7
ENDBRANCH   1   6
TORSDOF 4
REMARK  Name = ../refined-set-2016/3u90/3u90_pocket.pdb
REMARK  115 active torsions:
REMARK  status: ('A' for Active; 'I' for Inactive)
REMARK    1  A    between atoms: _1  and  _3
REMARK    2  A    between atoms: _3  and  _4
REMARK    3  A    between atoms: _3  and  _6
REMARK    4  A    between atoms: _6  and  _7
REMARK    5  A    between atoms: _12  and  _13
REMARK    6  A    between atoms: _15  and  _17
REMARK    7  A    between atoms: _17  and  _18
REMARK    8  A    between atoms: _17  and  _20
REMARK    9  A    between atoms: _20  and  _21
REMARK   10  A    between atoms: _24  and  _26
REMARK   11  A    between atoms: _26  and  _27
REMARK   12  A    between atoms: _26  and  _29
REMARK   13  A    between atoms: _29  and  _30
REMARK   14  A    between atoms: _30  and  _31
REMARK   15  A    between atoms: _31  and  _32
REMARK   16  A    between atoms: _41  and  _43
REMARK   17  A    between atoms: _43  and  _44
REMARK   18  A    between atoms: _47  and  _49
REMARK   19  A    between atoms: _49  and  _50
REMARK   20  A    between atoms: _49  and  _52
REMARK   21  A    between atoms: _52  and  _53
REMARK   22  A    between atoms: _55  and  _57
REMARK   23  A    between atoms: _57  and  _58
REMARK   24  A    between atoms: _57  and  _60
REMARK   25  A    between atoms: _60  and  _61
REMARK   26  A    between atoms: _66  and  _67
REMARK   27  A    between atoms: _69  and  _71
REMARK   28  A    between atoms: _71  and  _72
REMARK   29  A    between atoms: _71  and  _74
REMARK   30  A    between atoms: _74  and  _75
REMARK   31  A    between atoms: _78  and  _80
REMARK   32  A    between atoms: _80  and  _81
REMARK   33  A    between atoms: _80  and  _83
REMARK   34  A    between atoms: _83  and  _84
REMARK   35  A    between atoms: _89  and  _90
REMARK   36  A    between atoms: _92  and  _94
REMARK   37  A    between atoms: _94  and  _95
REMARK   38  A    between atoms: _94  and  _97
REMARK   39  A    between atoms: _97  and  _98
REMARK   40  A    between atoms: _101  and  _103
REMARK   41  A    between atoms: _103  and  _104
REMARK   42  A    between atoms: _103  and  _106
REMARK   43  A    between atoms: _106  and  _107
REMARK   44  A    between atoms: _109  and  _111
REMARK   45  A    between atoms: _111  and  _112
REMARK   46  A    between atoms: _111  and  _114
REMARK   47  A    between atoms: _114  and  _115
REMARK   48  A    between atoms: _121  and  _123
REMARK   49  A    between atoms: _123  and  _124
REMARK   50  A    between atoms: _123  and  _126
REMARK   51  A    between atoms: _126  and  _127
REMARK   52  A    between atoms: _133  and  _135
REMARK   53  A    between atoms: _135  and  _136
REMARK   54  A    between atoms: _135  and  _138
REMARK   55  A    between atoms: _138  and  _139
REMARK   56  A    between atoms: _139  and  _140
REMARK   57  A    between atoms: _140  and  _141
REMARK   58  A    between atoms: _150  and  _152
REMARK   59  A    between atoms: _152  and  _153
REMARK   60  A    between atoms: _152  and  _155
REMARK   61  A    between atoms: _155  and  _156
REMARK   62  A    between atoms: _156  and  _157
REMARK   63  A    between atoms: _160  and  _162
REMARK   64  A    between atoms: _162  and  _163
REMARK   65  A    between atoms: _162  and  _165
REMARK   66  A    between atoms: _165  and  _166
REMARK   67  A    between atoms: _169  and  _171
REMARK   68  A    between atoms: _171  and  _172
REMARK   69  A    between atoms: _175  and  _177
REMARK   70  A    between atoms: _177  and  _178
REMARK   71  A    between atoms: _177  and  _180
REMARK   72  A    between atoms: _180  and  _181
REMARK   73  A    between atoms: _181  and  _182
REMARK   74  A    between atoms: _185  and  _187
REMARK   75  A    between atoms: _187  and  _188
REMARK   76  A    between atoms: _187  and  _190
REMARK   77  A    between atoms: _190  and  _191
REMARK   78  A    between atoms: _191  and  _192
REMARK   79  A    between atoms: _195  and  _197
REMARK   80  A    between atoms: _197  and  _198
REMARK   81  A    between atoms: _197  and  _200
REMARK   82  A    between atoms: _200  and  _201
REMARK   83  A    between atoms: _201  and  _202
REMARK   84  A    between atoms: _202  and  _203
REMARK   85  A    between atoms: _203  and  _204
REMARK   86  A    between atoms: _208  and  _210
REMARK   87  A    between atoms: _210  and  _211
REMARK   88  A    between atoms: _210  and  _213
REMARK   89  A    between atoms: _213  and  _214
REMARK   90  A    between atoms: _214  and  _215
REMARK   91  A    between atoms: _215  and  _216
REMARK   92  A    between atoms: _225  and  _227
REMARK   93  A    between atoms: _227  and  _228
REMARK   94  A    between atoms: _227  and  _230
REMARK   95  A    between atoms: _230  and  _231
REMARK   96  A    between atoms: _231  and  _232
REMARK   97  A    between atoms: _235  and  _237
REMARK   98  A    between atoms: _237  and  _238
REMARK   99  A    between atoms: _241  and  _243
REMARK  100  A    between atoms: _243  and  _244
REMARK  101  A    between atoms: _243  and  _246
REMARK  102  A    between atoms: _246  and  _247
REMARK  103  A    between atoms: _247  and  _248
REMARK  104  A    between atoms: _251  and  _253
REMARK  105  A    between atoms: _253  and  _254
REMARK  106  A    between atoms: _253  and  _256
REMARK  107  A    between atoms: _256  and  _257
REMARK  108  A    between atoms: _260  and  _262
REMARK  109  A    between atoms: _262  and  _263
REMARK  110  A    between atoms: _262  and  _265
REMARK  111  A    between atoms: _265  and  _266
REMARK  112  A    between atoms: _272  and  _274
REMARK  113  A    between atoms: _274  and  _275
REMARK  114  A    between atoms: _274  and  _277
REMARK  115  A    between atoms: _277  and  _278
REMARK                            x       y       z     vdW  Elec       q    Type
REMARK                         _______ _______ _______ _____ _____    ______ ____
ROOT
ATOM      1  O   HOH     1      35.170   2.732  44.407  0.00  0.00    +0.000 OA
ENDROOT
TORSDOF 0
REMARK  Name = ../refined-set-2016/3u90/3u90_pocket.pdb
REMARK  115 active torsions:
REMARK  status: ('A' for Active; 'I' for Inactive)
REMARK    1  A    between atoms: _1  and  _3
REMARK    2  A    between atoms: _3  and  _4
REMARK    3  A    between atoms: _3  and  _6
REMARK    4  A    between atoms: _6  and  _7
REMARK    5  A    between atoms: _12  and  _13
REMARK    6  A    between atoms: _15  and  _17
REMARK    7  A    between atoms: _17  and  _18
REMARK    8  A    between atoms: _17  and  _20
REMARK    9  A    between atoms: _20  and  _21
REMARK   10  A    between atoms: _24  and  _26
REMARK   11  A    between atoms: _26  and  _27
REMARK   12  A    between atoms: _26  and  _29
REMARK   13  A    between atoms: _29  and  _30
REMARK   14  A    between atoms: _30  and  _31
REMARK   15  A    between atoms: _31  and  _32
REMARK   16  A    between atoms: _41  and  _43
REMARK   17  A    between atoms: _43  and  _44
REMARK   18  A    between atoms: _47  and  _49
REMARK   19  A    between atoms: _49  and  _50
REMARK   20  A    between atoms: _49  and  _52
REMARK   21  A    between atoms: _52  and  _53
REMARK   22  A    between atoms: _55  and  _57
REMARK   23  A    between atoms: _57  and  _58
REMARK   24  A    between atoms: _57  and  _60
REMARK   25  A    between atoms: _60  and  _61
REMARK   26  A    between atoms: _66  and  _67
REMARK   27  A    between atoms: _69  and  _71
REMARK   28  A    between atoms: _71  and  _72
REMARK   29  A    between atoms: _71  and  _74
REMARK   30  A    between atoms: _74  and  _75
REMARK   31  A    between atoms: _78  and  _80
REMARK   32  A    between atoms: _80  and  _81
REMARK   33  A    between atoms: _80  and  _83
REMARK   34  A    between atoms: _83  and  _84
REMARK   35  A    between atoms: _89  and  _90
REMARK   36  A    between atoms: _92  and  _94
REMARK   37  A    between atoms: _94  and  _95
REMARK   38  A    between atoms: _94  and  _97
REMARK   39  A    between atoms: _97  and  _98
REMARK   40  A    between atoms: _101  and  _103
REMARK   41  A    between atoms: _103  and  _104
REMARK   42  A    between atoms: _103  and  _106
REMARK   43  A    between atoms: _106  and  _107
REMARK   44  A    between atoms: _109  and  _111
REMARK   45  A    between atoms: _111  and  _112
REMARK   46  A    between atoms: _111  and  _114
REMARK   47  A    between atoms: _114  and  _115
REMARK   48  A    between atoms: _121  and  _123
REMARK   49  A    between atoms: _123  and  _124
REMARK   50  A    between atoms: _123  and  _126
REMARK   51  A    between atoms: _126  and  _127
REMARK   52  A    between atoms: _133  and  _135
REMARK   53  A    between atoms: _135  and  _136
REMARK   54  A    between atoms: _135  and  _138
REMARK   55  A    between atoms: _138  and  _139
REMARK   56  A    between atoms: _139  and  _140
REMARK   57  A    between atoms: _140  and  _141
REMARK   58  A    between atoms: _150  and  _152
REMARK   59  A    between atoms: _152  and  _153
REMARK   60  A    between atoms: _152  and  _155
REMARK   61  A    between atoms: _155  and  _156
REMARK   62  A    between atoms: _156  and  _157
REMARK   63  A    between atoms: _160  and  _162
REMARK   64  A    between atoms: _162  and  _163
REMARK   65  A    between atoms: _162  and  _165
REMARK   66  A    between atoms: _165  and  _166
REMARK   67  A    between atoms: _169  and  _171
REMARK   68  A    between atoms: _171  and  _172
REMARK   69  A    between atoms: _175  and  _177
REMARK   70  A    between atoms: _177  and  _178
REMARK   71  A    between atoms: _177  and  _180
REMARK   72  A    between atoms: _180  and  _181
REMARK   73  A    between atoms: _181  and  _182
REMARK   74  A    between atoms: _185  and  _187
REMARK   75  A    between atoms: _187  and  _188
REMARK   76  A    between atoms: _187  and  _190
REMARK   77  A    between atoms: _190  and  _191
REMARK   78  A    between atoms: _191  and  _192
REMARK   79  A    between atoms: _195  and  _197
REMARK   80  A    between atoms: _197  and  _198
REMARK   81  A    between atoms: _197  and  _200
REMARK   82  A    between atoms: _200  and  _201
REMARK   83  A    between atoms: _201  and  _202
REMARK   84  A    between atoms: _202  and  _203
REMARK   85  A    between atoms: _203  and  _204
REMARK   86  A    between atoms: _208  and  _210
REMARK   87  A    between atoms: _210  and  _211
REMARK   88  A    between atoms: _210  and  _213
REMARK   89  A    between atoms: _213  and  _214
REMARK   90  A    between atoms: _214  and  _215
REMARK   91  A    between atoms: _215  and  _216
REMARK   92  A    between atoms: _225  and  _227
REMARK   93  A    between atoms: _227  and  _228
REMARK   94  A    between atoms: _227  and  _230
REMARK   95  A    between atoms: _230  and  _231
REMARK   96  A    between atoms: _231  and  _232
REMARK   97  A    between atoms: _235  and  _237
REMARK   98  A    between atoms: _237  and  _238
REMARK   99  A    between atoms: _241  and  _243
REMARK  100  A    between atoms: _243  and  _244
REMARK  101  A    between atoms: _243  and  _246
REMARK  102  A    between atoms: _246  and  _247
REMARK  103  A    between atoms: _247  and  _248
REMARK  104  A    between atoms: _251  and  _253
REMARK  105  A    between atoms: _253  and  _254
REMARK  106  A    between atoms: _253  and  _256
REMARK  107  A    between atoms: _256  and  _257
REMARK  108  A    between atoms: _260  and  _262
REMARK  109  A    between atoms: _262  and  _263
REMARK  110  A    between atoms: _262  and  _265
REMARK  111  A    between atoms: _265  and  _266
REMARK  112  A    between atoms: _272  and  _274
REMARK  113  A    between atoms: _274  and  _275
REMARK  114  A    between atoms: _274  and  _277
REMARK  115  A    between atoms: _277  and  _278
REMARK                            x       y       z     vdW  Elec       q    Type
REMARK                         _______ _______ _______ _____ _____    ______ ____
ROOT
ATOM      1  O   HOH     1      31.029   3.800  26.060  0.00  0.00    +0.000 OA
ENDROOT
TORSDOF 0
