REMARK  Name = ../refined-set-2016/4oiv/4oiv_pocket.pdb
REMARK  245 active torsions:
REMARK  status: ('A' for Active; 'I' for Inactive)
REMARK    1  A    between atoms: _1  and  _3
REMARK    2  A    between atoms: _3  and  _4
REMARK    3  A    between atoms: _3  and  _6
REMARK    4  A    between atoms: _6  and  _7
REMARK    5  A    between atoms: _12  and  _14
REMARK    6  A    between atoms: _14  and  _15
REMARK    7  A    between atoms: _14  and  _17
REMARK    8  A    between atoms: _17  and  _18
REMARK    9  A    between atoms: _24  and  _26
REMARK   10  A    between atoms: _26  and  _27
REMARK   11  A    between atoms: _26  and  _29
REMARK   12  A    between atoms: _29  and  _30
REMARK   13  A    between atoms: _33  and  _35
REMARK   14  A    between atoms: _35  and  _36
REMARK   15  A    between atoms: _35  and  _38
REMARK   16  A    between atoms: _38  and  _39
REMARK   17  A    between atoms: _42  and  _44
REMARK   18  A    between atoms: _44  and  _45
REMARK   19  A    between atoms: _44  and  _47
REMARK   20  A    between atoms: _47  and  _48
REMARK   21  A    between atoms: _51  and  _53
REMARK   22  A    between atoms: _53  and  _54
REMARK   23  A    between atoms: _53  and  _56
REMARK   24  A    between atoms: _56  and  _57
REMARK   25  A    between atoms: _60  and  _62
REMARK   26  A    between atoms: _62  and  _63
REMARK   27  A    between atoms: _62  and  _65
REMARK   28  A    between atoms: _65  and  _66
REMARK   29  A    between atoms: _66  and  _67
REMARK   30  A    between atoms: _70  and  _72
REMARK   31  A    between atoms: _72  and  _73
REMARK   32  A    between atoms: _72  and  _75
REMARK   33  A    between atoms: _75  and  _76
REMARK   34  A    between atoms: _76  and  _77
REMARK   35  A    between atoms: _79  and  _81
REMARK   36  A    between atoms: _81  and  _82
REMARK   37  A    between atoms: _85  and  _87
REMARK   38  A    between atoms: _87  and  _88
REMARK   39  A    between atoms: _87  and  _90
REMARK   40  A    between atoms: _90  and  _91
REMARK   41  A    between atoms: _94  and  _96
REMARK   42  A    between atoms: _96  and  _97
REMARK   43  A    between atoms: _96  and  _99
REMARK   44  A    between atoms: _99  and  _100
REMARK   45  A    between atoms: _105  and  _107
REMARK   46  A    between atoms: _107  and  _108
REMARK   47  A    between atoms: _107  and  _110
REMARK   48  A    between atoms: _110  and  _111
REMARK   49  A    between atoms: _116  and  _118
REMARK   50  A    between atoms: _118  and  _119
REMARK   51  A    between atoms: _118  and  _121
REMARK   52  A    between atoms: _124  and  _126
REMARK   53  A    between atoms: _126  and  _127
REMARK   54  A    between atoms: _126  and  _129
REMARK   55  A    between atoms: _129  and  _130
REMARK   56  A    between atoms: _130  and  _131
REMARK   57  A    between atoms: _136  and  _138
REMARK   58  A    between atoms: _138  and  _139
REMARK   59  A    between atoms: _138  and  _141
REMARK   60  A    between atoms: _141  and  _142
REMARK   61  A    between atoms: _145  and  _147
REMARK   62  A    between atoms: _147  and  _148
REMARK   63  A    between atoms: _151  and  _153
REMARK   64  A    between atoms: _153  and  _154
REMARK   65  A    between atoms: _153  and  _156
REMARK   66  A    between atoms: _159  and  _161
REMARK   67  A    between atoms: _161  and  _162
REMARK   68  A    between atoms: _161  and  _164
REMARK   69  A    between atoms: _164  and  _165
REMARK   70  A    between atoms: _165  and  _166
REMARK   71  A    between atoms: _169  and  _171
REMARK   72  A    between atoms: _171  and  _172
REMARK   73  A    between atoms: _175  and  _177
REMARK   74  A    between atoms: _177  and  _178
REMARK   75  A    between atoms: _177  and  _180
REMARK   76  A    between atoms: _180  and  _181
REMARK   77  A    between atoms: _181  and  _182
REMARK   78  A    between atoms: _184  and  _186
REMARK   79  A    between atoms: _186  and  _187
REMARK   80  A    between atoms: _186  and  _189
REMARK   81  A    between atoms: _189  and  _190
REMARK   82  A    between atoms: _196  and  _198
REMARK   83  A    between atoms: _198  and  _199
REMARK   84  A    between atoms: _198  and  _201
REMARK   85  A    between atoms: _201  and  _202
REMARK   86  A    between atoms: _205  and  _207
REMARK   87  A    between atoms: _207  and  _208
REMARK   88  A    between atoms: _207  and  _210
REMARK   89  A    between atoms: _210  and  _211
REMARK   90  A    between atoms: _211  and  _212
REMARK   91  A    between atoms: _212  and  _213
REMARK   92  A    between atoms: _222  and  _224
REMARK   93  A    between atoms: _224  and  _225
REMARK   94  A    between atoms: _224  and  _227
REMARK   95  A    between atoms: _227  and  _228
REMARK   96  A    between atoms: _230  and  _232
REMARK   97  A    between atoms: _232  and  _233
REMARK   98  A    between atoms: _236  and  _238
REMARK   99  A    between atoms: _238  and  _239
REMARK  100  A    between atoms: _238  and  _241
REMARK  101  A    between atoms: _241  and  _242
REMARK  102  A    between atoms: _245  and  _247
REMARK  103  A    between atoms: _247  and  _248
REMARK  104  A    between atoms: _247  and  _250
REMARK  105  A    between atoms: _250  and  _251
REMARK  106  A    between atoms: _257  and  _259
REMARK  107  A    between atoms: _259  and  _260
REMARK  108  A    between atoms: _259  and  _262
REMARK  109  A    between atoms: _262  and  _263
REMARK  110  A    between atoms: _266  and  _268
REMARK  111  A    between atoms: _268  and  _269
REMARK  112  A    between atoms: _268  and  _271
REMARK  113  A    between atoms: _271  and  _272
REMARK  114  A    between atoms: _272  and  _273
REMARK  115  A    between atoms: _273  and  _274
REMARK  116  A    between atoms: _283  and  _285
REMARK  117  A    between atoms: _285  and  _286
REMARK  118  A    between atoms: _285  and  _288
REMARK  119  A    between atoms: _288  and  _289
REMARK  120  A    between atoms: _292  and  _294
REMARK  121  A    between atoms: _294  and  _295
REMARK  122  A    between atoms: _294  and  _297
REMARK  123  A    between atoms: _297  and  _298
REMARK  124  A    between atoms: _298  and  _299
REMARK  125  A    between atoms: _299  and  _300
REMARK  126  A    between atoms: _309  and  _311
REMARK  127  A    between atoms: _311  and  _312
REMARK  128  A    between atoms: _311  and  _314
REMARK  129  A    between atoms: _314  and  _315
REMARK  130  A    between atoms: _317  and  _319
REMARK  131  A    between atoms: _319  and  _320
REMARK  132  A    between atoms: _319  and  _322
REMARK  133  A    between atoms: _322  and  _323
REMARK  134  A    between atoms: _326  and  _328
REMARK  135  A    between atoms: _328  and  _329
REMARK  136  A    between atoms: _328  and  _331
REMARK  137  A    between atoms: _331  and  _332
REMARK  138  A    between atoms: _334  and  _336
REMARK  139  A    between atoms: _336  and  _337
REMARK  140  A    between atoms: _336  and  _339
REMARK  141  A    between atoms: _339  and  _340
REMARK  142  A    between atoms: _343  and  _345
REMARK  143  A    between atoms: _345  and  _346
REMARK  144  A    between atoms: _345  and  _348
REMARK  145  A    between atoms: _348  and  _349
REMARK  146  A    between atoms: _349  and  _350
REMARK  147  A    between atoms: _353  and  _355
REMARK  148  A    between atoms: _355  and  _356
REMARK  149  A    between atoms: _355  and  _358
REMARK  150  A    between atoms: _358  and  _359
REMARK  151  A    between atoms: _364  and  _365
REMARK  152  A    between atoms: _367  and  _369
REMARK  153  A    between atoms: _369  and  _370
REMARK  154  A    between atoms: _369  and  _372
REMARK  155  A    between atoms: _372  and  _373
REMARK  156  A    between atoms: _376  and  _378
REMARK  157  A    between atoms: _378  and  _379
REMARK  158  A    between atoms: _378  and  _381
REMARK  159  A    between atoms: _381  and  _382
REMARK  160  A    between atoms: _386  and  _387
REMARK  161  A    between atoms: _392  and  _394
REMARK  162  A    between atoms: _394  and  _395
REMARK  163  A    between atoms: _394  and  _397
REMARK  164  A    between atoms: _397  and  _398
REMARK  165  A    between atoms: _398  and  _399
REMARK  166  A    between atoms: _401  and  _403
REMARK  167  A    between atoms: _403  and  _404
REMARK  168  A    between atoms: _403  and  _406
REMARK  169  A    between atoms: _406  and  _407
REMARK  170  A    between atoms: _413  and  _415
REMARK  171  A    between atoms: _415  and  _416
REMARK  172  A    between atoms: _415  and  _418
REMARK  173  A    between atoms: _418  and  _419
REMARK  174  A    between atoms: _424  and  _425
REMARK  175  A    between atoms: _427  and  _429
REMARK  176  A    between atoms: _429  and  _430
REMARK  177  A    between atoms: _429  and  _432
REMARK  178  A    between atoms: _432  and  _433
REMARK  179  A    between atoms: _438  and  _440
REMARK  180  A    between atoms: _440  and  _441
REMARK  181  A    between atoms: _440  and  _443
REMARK  182  A    between atoms: _443  and  _444
REMARK  183  A    between atoms: _449  and  _451
REMARK  184  A    between atoms: _451  and  _452
REMARK  185  A    between atoms: _451  and  _454
REMARK  186  A    between atoms: _454  and  _455
REMARK  187  A    between atoms: _460  and  _462
REMARK  188  A    between atoms: _462  and  _463
REMARK  189  A    between atoms: _462  and  _465
REMARK  190  A    between atoms: _465  and  _466
REMARK  191  A    between atoms: _471  and  _473
REMARK  192  A    between atoms: _473  and  _474
REMARK  193  A    between atoms: _477  and  _479
REMARK  194  A    between atoms: _479  and  _480
REMARK  195  A    between atoms: _479  and  _482
REMARK  196  A    between atoms: _482  and  _483
REMARK  197  A    between atoms: _483  and  _484
REMARK  198  A    between atoms: _487  and  _489
REMARK  199  A    between atoms: _489  and  _490
REMARK  200  A    between atoms: _489  and  _492
REMARK  201  A    between atoms: _492  and  _493
REMARK  202  A    between atoms: _493  and  _494
REMARK  203  A    between atoms: _496  and  _498
REMARK  204  A    between atoms: _498  and  _499
REMARK  205  A    between atoms: _498  and  _501
REMARK  206  A    between atoms: _501  and  _502
REMARK  207  A    between atoms: _505  and  _507
REMARK  208  A    between atoms: _507  and  _508
REMARK  209  A    between atoms: _507  and  _510
REMARK  210  A    between atoms: _510  and  _511
REMARK  211  A    between atoms: _511  and  _512
REMARK  212  A    between atoms: _514  and  _516
REMARK  213  A    between atoms: _516  and  _517
REMARK  214  A    between atoms: _516  and  _519
REMARK  215  A    between atoms: _519  and  _520
REMARK  216  A    between atoms: _522  and  _524
REMARK  217  A    between atoms: _524  and  _525
REMARK  218  A    between atoms: _524  and  _527
REMARK  219  A    between atoms: _527  and  _528
REMARK  220  A    between atoms: _538  and  _540
REMARK  221  A    between atoms: _540  and  _541
REMARK  222  A    between atoms: _540  and  _543
REMARK  223  A    between atoms: _543  and  _544
REMARK  224  A    between atoms: _544  and  _545
REMARK  225  A    between atoms: _545  and  _546
REMARK  226  A    between atoms: _555  and  _557
REMARK  227  A    between atoms: _557  and  _558
REMARK  228  A    between atoms: _557  and  _560
REMARK  229  A    between atoms: _563  and  _565
REMARK  230  A    between atoms: _565  and  _566
REMARK  231  A    between atoms: _565  and  _568
REMARK  232  A    between atoms: _568  and  _569
REMARK  233  A    between atoms: _569  and  _570
REMARK  234  A    between atoms: _573  and  _575
REMARK  235  A    between atoms: _575  and  _576
REMARK  236  A    between atoms: _575  and  _578
REMARK  237  A    between atoms: _578  and  _579
REMARK  238  A    between atoms: _582  and  _584
REMARK  239  A    between atoms: _584  and  _585
REMARK  240  A    between atoms: _584  and  _587
REMARK  241  A    between atoms: _587  and  _588
REMARK  242  A    between atoms: _591  and  _593
REMARK  243  A    between atoms: _593  and  _594
REMARK  244  A    between atoms: _593  and  _596
REMARK  245  A    between atoms: _596  and  _597
REMARK                            x       y       z     vdW  Elec       q    Type
REMARK                         _______ _______ _______ _____ _____    ______ ____
ROOT
ATOM      1  C   GLU A   7      17.348  11.707 -28.226  0.00  0.00    +0.241 C 
ATOM      2  N   MET A   8      17.900  12.457 -27.300  0.00  0.00    -0.297 N 
ATOM      3  H   MET A   8      17.876  13.494 -27.372  0.00  0.00    +0.150 HD
ATOM      4  O   GLU A   7      17.412  10.456 -28.212  0.00  0.00    -0.273 OA
ENDROOT
BRANCH   1   5
ATOM      5  CA  GLU A   7      16.619  12.463 -29.354  0.00  0.00    +0.149 C 
BRANCH   5   8
ATOM      6  C   THR A   6      14.730  13.304 -28.053  0.00  0.00    +0.243 C 
ATOM      7  O   THR A   6      14.370  12.183 -27.798  0.00  0.00    -0.273 OA
ATOM      8  N   GLU A   7      15.801  13.542 -28.832  0.00  0.00    -0.297 N 
ATOM      9  H   GLU A   7      16.049  14.525 -29.066  0.00  0.00    +0.150 HD
BRANCH   6  10
ATOM     10  CA  THR A   6      14.068  14.495 -27.396  0.00  0.00    +0.176 C 
BRANCH  10  13
ATOM     11  C   LEU A   5      15.948  15.460 -26.268  0.00  0.00    +0.241 C 
ATOM     12  O   LEU A   5      16.089  14.437 -25.624  0.00  0.00    -0.273 OA
ATOM     13  N   THR A   6      15.005  15.612 -27.203  0.00  0.00    -0.295 N 
ATOM     14  H   THR A   6      14.937  16.482 -27.769  0.00  0.00    +0.150 HD
BRANCH  11  15
ATOM     15  CA  LEU A   5      16.904  16.612 -25.997  0.00  0.00    +0.149 C 
BRANCH  15  17
ATOM     16  C   ILE A   4      18.090  16.492 -28.132  0.00  0.00    +0.241 C 
ATOM     17  N   LEU A   5      17.344  17.191 -27.295  0.00  0.00    -0.297 N 
ATOM     18  H   LEU A   5      17.060  18.159 -27.547  0.00  0.00    +0.150 HD
ATOM     19  O   ILE A   4      18.470  15.327 -27.938  0.00  0.00    -0.273 OA
BRANCH  16  20
ATOM     20  CA  ILE A   4      18.487  17.229 -29.424  0.00  0.00    +0.149 C 
BRANCH  20  22
ATOM     21  C   LEU A   3      16.272  17.244 -30.376  0.00  0.00    +0.241 C 
ATOM     22  N   ILE A   4      17.389  17.911 -30.053  0.00  0.00    -0.297 N 
ATOM     23  H   ILE A   4      17.462  18.928 -30.259  0.00  0.00    +0.150 HD
ATOM     24  O   LEU A   3      16.197  16.003 -30.293  0.00  0.00    -0.273 OA
BRANCH  21  25
ATOM     25  CA  LEU A   3      15.107  18.034 -31.041  0.00  0.00    +0.149 C 
BRANCH  25  28
ATOM     26  C   PHE A   2      14.480  19.207 -29.012  0.00  0.00    +0.241 C 
ATOM     27  O   PHE A   2      14.312  18.133 -28.395  0.00  0.00    -0.273 OA
ATOM     28  N   LEU A   3      14.840  19.270 -30.292  0.00  0.00    -0.297 N 
ATOM     29  H   LEU A   3      14.932  20.193 -30.762  0.00  0.00    +0.150 HD
BRANCH  26  30
ATOM     30  CA  PHE A   2      14.276  20.557 -28.277  0.00  0.00    +0.153 C 
BRANCH  30  33
ATOM     31  C   ASN A   1      16.647  21.166 -28.263  0.00  0.00    +0.239 C 
ATOM     32  O   ASN A   1      16.970  20.105 -27.660  0.00  0.00    -0.274 OA
ATOM     33  N   PHE A   2      15.399  21.511 -28.598  0.00  0.00    -0.297 N 
ATOM     34  H   PHE A   2      15.207  22.418 -29.070  0.00  0.00    +0.150 HD
BRANCH  31  35
ATOM     35  CA  ASN A   1      17.739  22.135 -28.650  0.00  0.00    +0.154 C 
BRANCH  35  36
ATOM     36  N   ASN A   1      17.418  22.681 -30.000  0.00  0.00    -0.238 NA
ATOM     37  H   ASN A   1      17.164  23.684 -30.106  0.00  0.00    +0.142 HD
ENDBRANCH  35  36
BRANCH  35  38
ATOM     38  CB  ASN A   1      17.809  23.234 -27.590  0.00  0.00    +0.111 C 
BRANCH  38  39
ATOM     39  CG  ASN A   1      19.183  24.026 -27.668  0.00  0.00    +0.221 C 
ATOM     40  OD1 ASN A   1      19.299  25.197 -27.263  0.00  0.00    -0.275 OA
ATOM     41  ND2 ASN A   1      20.158  23.372 -28.213  0.00  0.00    -0.329 N 
ATOM     42 HD21 ASN A   1      21.087  23.824 -28.328  0.00  0.00    +0.145 HD
ATOM     43 HD22 ASN A   1      20.012  22.394 -28.536  0.00  0.00    +0.145 HD
ENDBRANCH  38  39
ENDBRANCH  35  38
ENDBRANCH  31  35
ENDBRANCH  30  33
BRANCH  30  44
ATOM     44  CB  PHE A   2      12.916  21.181 -28.592  0.00  0.00    +0.055 C 
BRANCH  44  45
ATOM     45  CG  PHE A   2      11.716  20.285 -28.266  0.00  0.00    -0.020 A 
ATOM     46  CD2 PHE A   2      11.278  20.193 -26.945  0.00  0.00    -0.004 A 
ATOM     47  CE2 PHE A   2      10.166  19.343 -26.609  0.00  0.00    -0.000 A 
ATOM     48  CZ  PHE A   2       9.540  18.657 -27.658  0.00  0.00    -0.000 A 
ATOM     49  CE1 PHE A   2       9.973  18.735 -28.960  0.00  0.00    -0.000 A 
ATOM     50  CD1 PHE A   2      11.065  19.554 -29.297  0.00  0.00    -0.004 A 
ENDBRANCH  44  45
ENDBRANCH  30  44
ENDBRANCH  26  30
ENDBRANCH  25  28
BRANCH  25  51
ATOM     51  CB  LEU A   3      15.381  18.312 -32.538  0.00  0.00    +0.029 C 
BRANCH  51  52
ATOM     52  CG  LEU A   3      14.068  18.763 -33.264  0.00  0.00    +0.002 C 
ATOM     53  CD2 LEU A   3      13.137  17.546 -33.473  0.00  0.00    +0.000 C 
ATOM     54  CD1 LEU A   3      14.364  19.570 -34.562  0.00  0.00    +0.000 C 
ENDBRANCH  51  52
ENDBRANCH  25  51
ENDBRANCH  21  25
ENDBRANCH  20  22
BRANCH  20  55
ATOM     55  CB  ILE A   4      19.690  18.201 -29.227  0.00  0.00    +0.027 C 
ATOM     56  CG2 ILE A   4      20.759  17.533 -28.278  0.00  0.00    +0.002 C 
BRANCH  55  57
ATOM     57  CG1 ILE A   4      20.268  18.573 -30.638  0.00  0.00    +0.002 C 
ATOM     58  CD1 ILE A   4      21.324  19.818 -30.511  0.00  0.00    +0.000 C 
ENDBRANCH  55  57
ENDBRANCH  20  55
ENDBRANCH  16  20
ENDBRANCH  15  17
BRANCH  15  59
ATOM     59  CB  LEU A   5      16.195  17.732 -25.182  0.00  0.00    +0.029 C 
BRANCH  59  60
ATOM     60  CG  LEU A   5      17.166  18.828 -24.693  0.00  0.00    +0.002 C 
ATOM     61  CD2 LEU A   5      18.442  18.336 -23.889  0.00  0.00    +0.000 C 
ATOM     62  CD1 LEU A   5      16.315  19.866 -23.975  0.00  0.00    +0.000 C 
ENDBRANCH  59  60
ENDBRANCH  15  59
ENDBRANCH  11  15
ENDBRANCH  10  13
BRANCH  10  63
ATOM     63  CB  THR A   6      12.811  14.913 -28.197  0.00  0.00    +0.137 C 
ATOM     64  CG2 THR A   6      11.936  15.894 -27.318  0.00  0.00    +0.034 C 
BRANCH  63  65
ATOM     65  OG1 THR A   6      13.195  15.540 -29.435  0.00  0.00    -0.382 OA
ATOM     66  HG1 THR A   6      13.739  16.344 -29.241  0.00  0.00    +0.210 HD
ENDBRANCH  63  65
ENDBRANCH  10  63
ENDBRANCH   6  10
ENDBRANCH   5   8
BRANCH   5  67
ATOM     67  CB  GLU A   7      17.638  13.058 -30.374  0.00  0.00    +0.041 C 
BRANCH  67  68
ATOM     68  CG  GLU A   7      18.522  11.975 -30.968  0.00  0.00    +0.116 C 
BRANCH  68  69
ATOM     69  CD  GLU A   7      19.569  12.453 -31.967  0.00  0.00    +0.365 C 
ATOM     70  OE2 GLU A   7      20.171  13.540 -31.820  0.00  0.00    -0.246 OA
ATOM     71  OE1 GLU A   7      19.751  11.625 -32.907  0.00  0.00    -0.246 OA
ENDBRANCH  68  69
ENDBRANCH  67  68
ENDBRANCH   5  67
ENDBRANCH   1   5
BRANCH   2  72
ATOM     72  CA  MET A   8      18.564  11.787 -26.141  0.00  0.00    +0.149 C 
BRANCH  72  73
ATOM     73  C   MET A   8      17.528  10.925 -25.373  0.00  0.00    +0.241 C 
ATOM     74  O   MET A   8      17.822   9.774 -24.996  0.00  0.00    -0.273 OA
ATOM     75  N   ALA A   9      16.402  11.528 -25.077  0.00  0.00    -0.297 N 
ATOM     76  H   ALA A   9      16.255  12.517 -25.363  0.00  0.00    +0.150 HD
BRANCH  75  77
ATOM     77  CA  ALA A   9      15.330  10.803 -24.332  0.00  0.00    +0.149 C 
ATOM     78  CB  ALA A   9      14.080  11.757 -24.073  0.00  0.00    +0.031 C 
BRANCH  77  79
ATOM     79  C   ALA A   9      14.845   9.573 -25.119  0.00  0.00    +0.241 C 
ATOM     80  O   ALA A   9      14.527   8.542 -24.499  0.00  0.00    -0.273 OA
ATOM     81  N   THR A  10      14.750   9.689 -26.440  0.00  0.00    -0.295 N 
ATOM     82  H   THR A  10      14.894  10.627 -26.866  0.00  0.00    +0.150 HD
BRANCH  81  83
ATOM     83  CA  THR A  10      14.454   8.565 -27.321  0.00  0.00    +0.176 C 
BRANCH  83  84
ATOM     84  C   THR A  10      15.416   7.372 -27.091  0.00  0.00    +0.243 C 
ATOM     85  O   THR A  10      14.961   6.268 -26.959  0.00  0.00    -0.273 OA
ATOM     86  N   ASN A  11      16.721   7.651 -27.082  0.00  0.00    -0.297 N 
ATOM     87  H   ASN A  11      17.036   8.607 -27.344  0.00  0.00    +0.150 HD
BRANCH  86  88
ATOM     88  CA  ASN A  11      17.704   6.665 -26.719  0.00  0.00    +0.158 C 
BRANCH  88  89
ATOM     89  C   ASN A  11      17.446   6.132 -25.297  0.00  0.00    +0.241 C 
ATOM     90  N   HIS A  12      17.134   7.004 -24.328  0.00  0.00    -0.297 N 
ATOM     91  H   HIS A  12      17.080   8.022 -24.532  0.00  0.00    +0.150 HD
ATOM     92  O   ASN A  11      17.525   4.894 -25.087  0.00  0.00    -0.273 OA
BRANCH  90  93
ATOM     93  CA  HIS A  12      16.868   6.497 -22.966  0.00  0.00    +0.155 C 
BRANCH  93  94
ATOM     94  C   HIS A  12      15.697   5.535 -22.879  0.00  0.00    +0.241 C 
ATOM     95  O   HIS A  12      15.751   4.615 -22.117  0.00  0.00    -0.273 OA
ATOM     96  N   VAL A  13      14.603   5.791 -23.602  0.00  0.00    -0.297 N 
ATOM     97  H   VAL A  13      14.559   6.636 -24.207  0.00  0.00    +0.150 HD
BRANCH  96  98
ATOM     98  CA  VAL A  13      13.459   4.863 -23.533  0.00  0.00    +0.149 C 
BRANCH  98  99
ATOM     99  C   VAL A  13      13.941   3.504 -24.026  0.00  0.00    +0.241 C 
ATOM    100  O   VAL A  13      13.646   2.450 -23.402  0.00  0.00    -0.273 OA
ATOM    101  N   GLN A  14      14.631   3.475 -25.144  0.00  0.00    -0.298 N 
ATOM    102  H   GLN A  14      14.880   4.354 -25.641  0.00  0.00    +0.150 HD
BRANCH 101 103
ATOM    103  CA  GLN A  14      15.043   2.163 -25.675  0.00  0.00    +0.137 C 
BRANCH 103 104
ATOM    104  C   GLN A  14      15.917   1.402 -24.640  0.00  0.00    +0.227 C 
ATOM    105  O   GLN A  14      15.732   0.193 -24.411  0.00  0.00    -0.286 OA
ENDBRANCH 103 104
BRANCH 103 106
ATOM    106  CB  GLN A  14      15.970   2.332 -26.897  0.00  0.00    +0.037 C 
BRANCH 106 107
ATOM    107  CG  GLN A  14      16.423   0.974 -27.469  0.00  0.00    +0.087 C 
BRANCH 107 108
ATOM    108  CD  GLN A  14      17.032   1.033 -28.873  0.00  0.00    +0.219 C 
ATOM    109  OE1 GLN A  14      17.406  -0.012 -29.426  0.00  0.00    -0.275 OA
ATOM    110  NE2 GLN A  14      17.078   2.219 -29.477  0.00  0.00    -0.329 N 
ATOM    111 HE21 GLN A  14      16.754   3.071 -28.976  0.00  0.00    +0.145 HD
ATOM    112 HE22 GLN A  14      17.438   2.293 -30.450  0.00  0.00    +0.145 HD
ENDBRANCH 107 108
ENDBRANCH 106 107
ENDBRANCH 103 106
ENDBRANCH 101 103
ENDBRANCH  98  99
BRANCH  98 113
ATOM    113  CB  VAL A  13      12.337   5.267 -24.504  0.00  0.00    +0.027 C 
ATOM    114  CG2 VAL A  13      11.772   6.669 -24.188  0.00  0.00    +0.002 C 
ATOM    115  CG1 VAL A  13      11.193   4.170 -24.525  0.00  0.00    +0.002 C 
ENDBRANCH  98 113
ENDBRANCH  96  98
ENDBRANCH  93  94
BRANCH  93 116
ATOM    116  CB  HIS A  12      16.640   7.681 -21.973  0.00  0.00    +0.076 C 
BRANCH 116 117
ATOM    117  CG  HIS A  12      17.875   8.498 -21.788  0.00  0.00    +0.082 A 
ATOM    118  CD2 HIS A  12      18.026   9.748 -21.334  0.00  0.00    +0.115 A 
ATOM    119  NE2 HIS A  12      19.363  10.054 -21.411  0.00  0.00    -0.221 NA
ATOM    120  CE1 HIS A  12      20.012   9.030 -21.937  0.00  0.00    +0.199 A 
ATOM    121  ND1 HIS A  12      19.144   8.061 -22.150  0.00  0.00    -0.227 NA
ENDBRANCH 116 117
ENDBRANCH  93 116
ENDBRANCH  90  93
ENDBRANCH  88  89
BRANCH  88 122
ATOM    122  CB  ASN A  11      19.097   7.282 -26.822  0.00  0.00    +0.114 C 
BRANCH 122 123
ATOM    123  CG  ASN A  11      20.184   6.297 -26.325  0.00  0.00    +0.222 C 
ATOM    124  OD1 ASN A  11      20.820   6.508 -25.239  0.00  0.00    -0.275 OA
ATOM    125  ND2 ASN A  11      20.338   5.165 -27.050  0.00  0.00    -0.329 N 
ATOM    126 HD21 ASN A  11      20.995   4.426 -26.727  0.00  0.00    +0.145 HD
ATOM    127 HD22 ASN A  11      19.799   5.034 -27.930  0.00  0.00    +0.145 HD
ENDBRANCH 122 123
ENDBRANCH  88 122
ENDBRANCH  86  88
ENDBRANCH  83  84
BRANCH  83 128
ATOM    128  CB  THR A  10      14.470   8.988 -28.809  0.00  0.00    +0.137 C 
ATOM    129  CG2 THR A  10      14.284   7.710 -29.757  0.00  0.00    +0.034 C 
BRANCH 128 130
ATOM    130  OG1 THR A  10      13.305   9.837 -29.012  0.00  0.00    -0.382 OA
ATOM    131  HG1 THR A  10      13.367  10.627 -28.419  0.00  0.00    +0.210 HD
ENDBRANCH 128 130
ENDBRANCH  83 128
ENDBRANCH  81  83
ENDBRANCH  77  79
ENDBRANCH  75  77
ENDBRANCH  72  73
BRANCH  72 132
ATOM    132  CB  MET A   8      19.196  12.825 -25.151  0.00  0.00    +0.041 C 
BRANCH 132 133
ATOM    133  CG  MET A   8      20.240  13.647 -25.798  0.00  0.00    +0.060 C 
BRANCH 133 134
ATOM    134  SD  MET A   8      20.757  14.910 -24.521  0.00  0.00    -0.139 S 
ATOM    135  CE  MET A   8      21.606  16.264 -25.387  0.00  0.00    +0.069 C 
ENDBRANCH 133 134
ENDBRANCH 132 133
ENDBRANCH  72 132
ENDBRANCH   2  72
TORSDOF 56
REMARK  Name = ../refined-set-2016/4oiv/4oiv_pocket.pdb
REMARK  245 active torsions:
REMARK  status: ('A' for Active; 'I' for Inactive)
REMARK    1  A    between atoms: _1  and  _3
REMARK    2  A    between atoms: _3  and  _4
REMARK    3  A    between atoms: _3  and  _6
REMARK    4  A    between atoms: _6  and  _7
REMARK    5  A    between atoms: _12  and  _14
REMARK    6  A    between atoms: _14  and  _15
REMARK    7  A    between atoms: _14  and  _17
REMARK    8  A    between atoms: _17  and  _18
REMARK    9  A    between atoms: _24  and  _26
REMARK   10  A    between atoms: _26  and  _27
REMARK   11  A    between atoms: _26  and  _29
REMARK   12  A    between atoms: _29  and  _30
REMARK   13  A    between atoms: _33  and  _35
REMARK   14  A    between atoms: _35  and  _36
REMARK   15  A    between atoms: _35  and  _38
REMARK   16  A    between atoms: _38  and  _39
REMARK   17  A    between atoms: _42  and  _44
REMARK   18  A    between atoms: _44  and  _45
REMARK   19  A    between atoms: _44  and  _47
REMARK   20  A    between atoms: _47  and  _48
REMARK   21  A    between atoms: _51  and  _53
REMARK   22  A    between atoms: _53  and  _54
REMARK   23  A    between atoms: _53  and  _56
REMARK   24  A    between atoms: _56  and  _57
REMARK   25  A    between atoms: _60  and  _62
REMARK   26  A    between atoms: _62  and  _63
REMARK   27  A    between atoms: _62  and  _65
REMARK   28  A    between atoms: _65  and  _66
REMARK   29  A    between atoms: _66  and  _67
REMARK   30  A    between atoms: _70  and  _72
REMARK   31  A    between atoms: _72  and  _73
REMARK   32  A    between atoms: _72  and  _75
REMARK   33  A    between atoms: _75  and  _76
REMARK   34  A    between atoms: _76  and  _77
REMARK   35  A    between atoms: _79  and  _81
REMARK   36  A    between atoms: _81  and  _82
REMARK   37  A    between atoms: _85  and  _87
REMARK   38  A    between atoms: _87  and  _88
REMARK   39  A    between atoms: _87  and  _90
REMARK   40  A    between atoms: _90  and  _91
REMARK   41  A    between atoms: _94  and  _96
REMARK   42  A    between atoms: _96  and  _97
REMARK   43  A    between atoms: _96  and  _99
REMARK   44  A    between atoms: _99  and  _100
REMARK   45  A    between atoms: _105  and  _107
REMARK   46  A    between atoms: _107  and  _108
REMARK   47  A    between atoms: _107  and  _110
REMARK   48  A    between atoms: _110  and  _111
REMARK   49  A    between atoms: _116  and  _118
REMARK   50  A    between atoms: _118  and  _119
REMARK   51  A    between atoms: _118  and  _121
REMARK   52  A    between atoms: _124  and  _126
REMARK   53  A    between atoms: _126  and  _127
REMARK   54  A    between atoms: _126  and  _129
REMARK   55  A    between atoms: _129  and  _130
REMARK   56  A    between atoms: _130  and  _131
REMARK   57  A    between atoms: _136  and  _138
REMARK   58  A    between atoms: _138  and  _139
REMARK   59  A    between atoms: _138  and  _141
REMARK   60  A    between atoms: _141  and  _142
REMARK   61  A    between atoms: _145  and  _147
REMARK   62  A    between atoms: _147  and  _148
REMARK   63  A    between atoms: _151  and  _153
REMARK   64  A    between atoms: _153  and  _154
REMARK   65  A    between atoms: _153  and  _156
REMARK   66  A    between atoms: _159  and  _161
REMARK   67  A    between atoms: _161  and  _162
REMARK   68  A    between atoms: _161  and  _164
REMARK   69  A    between atoms: _164  and  _165
REMARK   70  A    between atoms: _165  and  _166
REMARK   71  A    between atoms: _169  and  _171
REMARK   72  A    between atoms: _171  and  _172
REMARK   73  A    between atoms: _175  and  _177
REMARK   74  A    between atoms: _177  and  _178
REMARK   75  A    between atoms: _177  and  _180
REMARK   76  A    between atoms: _180  and  _181
REMARK   77  A    between atoms: _181  and  _182
REMARK   78  A    between atoms: _184  and  _186
REMARK   79  A    between atoms: _186  and  _187
REMARK   80  A    between atoms: _186  and  _189
REMARK   81  A    between atoms: _189  and  _190
REMARK   82  A    between atoms: _196  and  _198
REMARK   83  A    between atoms: _198  and  _199
REMARK   84  A    between atoms: _198  and  _201
REMARK   85  A    between atoms: _201  and  _202
REMARK   86  A    between atoms: _205  and  _207
REMARK   87  A    between atoms: _207  and  _208
REMARK   88  A    between atoms: _207  and  _210
REMARK   89  A    between atoms: _210  and  _211
REMARK   90  A    between atoms: _211  and  _212
REMARK   91  A    between atoms: _212  and  _213
REMARK   92  A    between atoms: _222  and  _224
REMARK   93  A    between atoms: _224  and  _225
REMARK   94  A    between atoms: _224  and  _227
REMARK   95  A    between atoms: _227  and  _228
REMARK   96  A    between atoms: _230  and  _232
REMARK   97  A    between atoms: _232  and  _233
REMARK   98  A    between atoms: _236  and  _238
REMARK   99  A    between atoms: _238  and  _239
REMARK  100  A    between atoms: _238  and  _241
REMARK  101  A    between atoms: _241  and  _242
REMARK  102  A    between atoms: _245  and  _247
REMARK  103  A    between atoms: _247  and  _248
REMARK  104  A    between atoms: _247  and  _250
REMARK  105  A    between atoms: _250  and  _251
REMARK  106  A    between atoms: _257  and  _259
REMARK  107  A    between atoms: _259  and  _260
REMARK  108  A    between atoms: _259  and  _262
REMARK  109  A    between atoms: _262  and  _263
REMARK  110  A    between atoms: _266  and  _268
REMARK  111  A    between atoms: _268  and  _269
REMARK  112  A    between atoms: _268  and  _271
REMARK  113  A    between atoms: _271  and  _272
REMARK  114  A    between atoms: _272  and  _273
REMARK  115  A    between atoms: _273  and  _274
REMARK  116  A    between atoms: _283  and  _285
REMARK  117  A    between atoms: _285  and  _286
REMARK  118  A    between atoms: _285  and  _288
REMARK  119  A    between atoms: _288  and  _289
REMARK  120  A    between atoms: _292  and  _294
REMARK  121  A    between atoms: _294  and  _295
REMARK  122  A    between atoms: _294  and  _297
REMARK  123  A    between atoms: _297  and  _298
REMARK  124  A    between atoms: _298  and  _299
REMARK  125  A    between atoms: _299  and  _300
REMARK  126  A    between atoms: _309  and  _311
REMARK  127  A    between atoms: _311  and  _312
REMARK  128  A    between atoms: _311  and  _314
REMARK  129  A    between atoms: _314  and  _315
REMARK  130  A    between atoms: _317  and  _319
REMARK  131  A    between atoms: _319  and  _320
REMARK  132  A    between atoms: _319  and  _322
REMARK  133  A    between atoms: _322  and  _323
REMARK  134  A    between atoms: _326  and  _328
REMARK  135  A    between atoms: _328  and  _329
REMARK  136  A    between atoms: _328  and  _331
REMARK  137  A    between atoms: _331  and  _332
REMARK  138  A    between atoms: _334  and  _336
REMARK  139  A    between atoms: _336  and  _337
REMARK  140  A    between atoms: _336  and  _339
REMARK  141  A    between atoms: _339  and  _340
REMARK  142  A    between atoms: _343  and  _345
REMARK  143  A    between atoms: _345  and  _346
REMARK  144  A    between atoms: _345  and  _348
REMARK  145  A    between atoms: _348  and  _349
REMARK  146  A    between atoms: _349  and  _350
REMARK  147  A    between atoms: _353  and  _355
REMARK  148  A    between atoms: _355  and  _356
REMARK  149  A    between atoms: _355  and  _358
REMARK  150  A    between atoms: _358  and  _359
REMARK  151  A    between atoms: _364  and  _365
REMARK  152  A    between atoms: _367  and  _369
REMARK  153  A    between atoms: _369  and  _370
REMARK  154  A    between atoms: _369  and  _372
REMARK  155  A    between atoms: _372  and  _373
REMARK  156  A    between atoms: _376  and  _378
REMARK  157  A    between atoms: _378  and  _379
REMARK  158  A    between atoms: _378  and  _381
REMARK  159  A    between atoms: _381  and  _382
REMARK  160  A    between atoms: _386  and  _387
REMARK  161  A    between atoms: _392  and  _394
REMARK  162  A    between atoms: _394  and  _395
REMARK  163  A    between atoms: _394  and  _397
REMARK  164  A    between atoms: _397  and  _398
REMARK  165  A    between atoms: _398  and  _399
REMARK  166  A    between atoms: _401  and  _403
REMARK  167  A    between atoms: _403  and  _404
REMARK  168  A    between atoms: _403  and  _406
REMARK  169  A    between atoms: _406  and  _407
REMARK  170  A    between atoms: _413  and  _415
REMARK  171  A    between atoms: _415  and  _416
REMARK  172  A    between atoms: _415  and  _418
REMARK  173  A    between atoms: _418  and  _419
REMARK  174  A    between atoms: _424  and  _425
REMARK  175  A    between atoms: _427  and  _429
REMARK  176  A    between atoms: _429  and  _430
REMARK  177  A    between atoms: _429  and  _432
REMARK  178  A    between atoms: _432  and  _433
REMARK  179  A    between atoms: _438  and  _440
REMARK  180  A    between atoms: _440  and  _441
REMARK  181  A    between atoms: _440  and  _443
REMARK  182  A    between atoms: _443  and  _444
REMARK  183  A    between atoms: _449  and  _451
REMARK  184  A    between atoms: _451  and  _452
REMARK  185  A    between atoms: _451  and  _454
REMARK  186  A    between atoms: _454  and  _455
REMARK  187  A    between atoms: _460  and  _462
REMARK  188  A    between atoms: _462  and  _463
REMARK  189  A    between atoms: _462  and  _465
REMARK  190  A    between atoms: _465  and  _466
REMARK  191  A    between atoms: _471  and  _473
REMARK  192  A    between atoms: _473  and  _474
REMARK  193  A    between atoms: _477  and  _479
REMARK  194  A    between atoms: _479  and  _480
REMARK  195  A    between atoms: _479  and  _482
REMARK  196  A    between atoms: _482  and  _483
REMARK  197  A    between atoms: _483  and  _484
REMARK  198  A    between atoms: _487  and  _489
REMARK  199  A    between atoms: _489  and  _490
REMARK  200  A    between atoms: _489  and  _492
REMARK  201  A    between atoms: _492  and  _493
REMARK  202  A    between atoms: _493  and  _494
REMARK  203  A    between atoms: _496  and  _498
REMARK  204  A    between atoms: _498  and  _499
REMARK  205  A    between atoms: _498  and  _501
REMARK  206  A    between atoms: _501  and  _502
REMARK  207  A    between atoms: _505  and  _507
REMARK  208  A    between atoms: _507  and  _508
REMARK  209  A    between atoms: _507  and  _510
REMARK  210  A    between atoms: _510  and  _511
REMARK  211  A    between atoms: _511  and  _512
REMARK  212  A    between atoms: _514  and  _516
REMARK  213  A    between atoms: _516  and  _517
REMARK  214  A    between atoms: _516  and  _519
REMARK  215  A    between atoms: _519  and  _520
REMARK  216  A    between atoms: _522  and  _524
REMARK  217  A    between atoms: _524  and  _525
REMARK  218  A    between atoms: _524  and  _527
REMARK  219  A    between atoms: _527  and  _528
REMARK  220  A    between atoms: _538  and  _540
REMARK  221  A    between atoms: _540  and  _541
REMARK  222  A    between atoms: _540  and  _543
REMARK  223  A    between atoms: _543  and  _544
REMARK  224  A    between atoms: _544  and  _545
REMARK  225  A    between atoms: _545  and  _546
REMARK  226  A    between atoms: _555  and  _557
REMARK  227  A    between atoms: _557  and  _558
REMARK  228  A    between atoms: _557  and  _560
REMARK  229  A    between atoms: _563  and  _565
REMARK  230  A    between atoms: _565  and  _566
REMARK  231  A    between atoms: _565  and  _568
REMARK  232  A    between atoms: _568  and  _569
REMARK  233  A    between atoms: _569  and  _570
REMARK  234  A    between atoms: _573  and  _575
REMARK  235  A    between atoms: _575  and  _576
REMARK  236  A    between atoms: _575  and  _578
REMARK  237  A    between atoms: _578  and  _579
REMARK  238  A    between atoms: _582  and  _584
REMARK  239  A    between atoms: _584  and  _585
REMARK  240  A    between atoms: _584  and  _587
REMARK  241  A    between atoms: _587  and  _588
REMARK  242  A    between atoms: _591  and  _593
REMARK  243  A    between atoms: _593  and  _594
REMARK  244  A    between atoms: _593  and  _596
REMARK  245  A    between atoms: _596  and  _597
REMARK                            x       y       z     vdW  Elec       q    Type
REMARK                         _______ _______ _______ _____ _____    ______ ____
ROOT
ATOM      1  CA  LEU A   1      15.232   1.404 -20.291  0.00  0.00    +0.133 C 
ENDROOT
BRANCH   1   2
ATOM      2  N   LEU A   1      16.063   1.789 -21.434  0.00  0.00    -0.239 NA
ATOM      3  H   LEU A   1      15.934   2.716 -21.888  0.00  0.00    +0.142 HD
ENDBRANCH   1   2
BRANCH   1   4
ATOM      4  C   LEU A   1      14.409   0.170 -20.609  0.00  0.00    +0.224 C 
ATOM      5  O   LEU A   1      14.253  -0.780 -19.778  0.00  0.00    -0.287 OA
ENDBRANCH   1   4
BRANCH   1   6
ATOM      6  CB  LEU A   1      14.342   2.583 -19.906  0.00  0.00    +0.025 C 
BRANCH   6   7
ATOM      7  CG  LEU A   1      13.105   2.222 -19.110  0.00  0.00    +0.002 C 
ATOM      8  CD2 LEU A   1      13.512   1.836 -17.716  0.00  0.00    +0.000 C 
ATOM      9  CD1 LEU A   1      12.014   3.425 -19.072  0.00  0.00    +0.000 C 
ENDBRANCH   6   7
ENDBRANCH   1   6
TORSDOF 4
REMARK  Name = ../refined-set-2016/4oiv/4oiv_pocket.pdb
REMARK  245 active torsions:
REMARK  status: ('A' for Active; 'I' for Inactive)
REMARK    1  A    between atoms: _1  and  _3
REMARK    2  A    between atoms: _3  and  _4
REMARK    3  A    between atoms: _3  and  _6
REMARK    4  A    between atoms: _6  and  _7
REMARK    5  A    between atoms: _12  and  _14
REMARK    6  A    between atoms: _14  and  _15
REMARK    7  A    between atoms: _14  and  _17
REMARK    8  A    between atoms: _17  and  _18
REMARK    9  A    between atoms: _24  and  _26
REMARK   10  A    between atoms: _26  and  _27
REMARK   11  A    between atoms: _26  and  _29
REMARK   12  A    between atoms: _29  and  _30
REMARK   13  A    between atoms: _33  and  _35
REMARK   14  A    between atoms: _35  and  _36
REMARK   15  A    between atoms: _35  and  _38
REMARK   16  A    between atoms: _38  and  _39
REMARK   17  A    between atoms: _42  and  _44
REMARK   18  A    between atoms: _44  and  _45
REMARK   19  A    between atoms: _44  and  _47
REMARK   20  A    between atoms: _47  and  _48
REMARK   21  A    between atoms: _51  and  _53
REMARK   22  A    between atoms: _53  and  _54
REMARK   23  A    between atoms: _53  and  _56
REMARK   24  A    between atoms: _56  and  _57
REMARK   25  A    between atoms: _60  and  _62
REMARK   26  A    between atoms: _62  and  _63
REMARK   27  A    between atoms: _62  and  _65
REMARK   28  A    between atoms: _65  and  _66
REMARK   29  A    between atoms: _66  and  _67
REMARK   30  A    between atoms: _70  and  _72
REMARK   31  A    between atoms: _72  and  _73
REMARK   32  A    between atoms: _72  and  _75
REMARK   33  A    between atoms: _75  and  _76
REMARK   34  A    between atoms: _76  and  _77
REMARK   35  A    between atoms: _79  and  _81
REMARK   36  A    between atoms: _81  and  _82
REMARK   37  A    between atoms: _85  and  _87
REMARK   38  A    between atoms: _87  and  _88
REMARK   39  A    between atoms: _87  and  _90
REMARK   40  A    between atoms: _90  and  _91
REMARK   41  A    between atoms: _94  and  _96
REMARK   42  A    between atoms: _96  and  _97
REMARK   43  A    between atoms: _96  and  _99
REMARK   44  A    between atoms: _99  and  _100
REMARK   45  A    between atoms: _105  and  _107
REMARK   46  A    between atoms: _107  and  _108
REMARK   47  A    between atoms: _107  and  _110
REMARK   48  A    between atoms: _110  and  _111
REMARK   49  A    between atoms: _116  and  _118
REMARK   50  A    between atoms: _118  and  _119
REMARK   51  A    between atoms: _118  and  _121
REMARK   52  A    between atoms: _124  and  _126
REMARK   53  A    between atoms: _126  and  _127
REMARK   54  A    between atoms: _126  and  _129
REMARK   55  A    between atoms: _129  and  _130
REMARK   56  A    between atoms: _130  and  _131
REMARK   57  A    between atoms: _136  and  _138
REMARK   58  A    between atoms: _138  and  _139
REMARK   59  A    between atoms: _138  and  _141
REMARK   60  A    between atoms: _141  and  _142
REMARK   61  A    between atoms: _145  and  _147
REMARK   62  A    between atoms: _147  and  _148
REMARK   63  A    between atoms: _151  and  _153
REMARK   64  A    between atoms: _153  and  _154
REMARK   65  A    between atoms: _153  and  _156
REMARK   66  A    between atoms: _159  and  _161
REMARK   67  A    between atoms: _161  and  _162
REMARK   68  A    between atoms: _161  and  _164
REMARK   69  A    between atoms: _164  and  _165
REMARK   70  A    between atoms: _165  and  _166
REMARK   71  A    between atoms: _169  and  _171
REMARK   72  A    between atoms: _171  and  _172
REMARK   73  A    between atoms: _175  and  _177
REMARK   74  A    between atoms: _177  and  _178
REMARK   75  A    between atoms: _177  and  _180
REMARK   76  A    between atoms: _180  and  _181
REMARK   77  A    between atoms: _181  and  _182
REMARK   78  A    between atoms: _184  and  _186
REMARK   79  A    between atoms: _186  and  _187
REMARK   80  A    between atoms: _186  and  _189
REMARK   81  A    between atoms: _189  and  _190
REMARK   82  A    between atoms: _196  and  _198
REMARK   83  A    between atoms: _198  and  _199
REMARK   84  A    between atoms: _198  and  _201
REMARK   85  A    between atoms: _201  and  _202
REMARK   86  A    between atoms: _205  and  _207
REMARK   87  A    between atoms: _207  and  _208
REMARK   88  A    between atoms: _207  and  _210
REMARK   89  A    between atoms: _210  and  _211
REMARK   90  A    between atoms: _211  and  _212
REMARK   91  A    between atoms: _212  and  _213
REMARK   92  A    between atoms: _222  and  _224
REMARK   93  A    between atoms: _224  and  _225
REMARK   94  A    between atoms: _224  and  _227
REMARK   95  A    between atoms: _227  and  _228
REMARK   96  A    between atoms: _230  and  _232
REMARK   97  A    between atoms: _232  and  _233
REMARK   98  A    between atoms: _236  and  _238
REMARK   99  A    between atoms: _238  and  _239
REMARK  100  A    between atoms: _238  and  _241
REMARK  101  A    between atoms: _241  and  _242
REMARK  102  A    between atoms: _245  and  _247
REMARK  103  A    between atoms: _247  and  _248
REMARK  104  A    between atoms: _247  and  _250
REMARK  105  A    between atoms: _250  and  _251
REMARK  106  A    between atoms: _257  and  _259
REMARK  107  A    between atoms: _259  and  _260
REMARK  108  A    between atoms: _259  and  _262
REMARK  109  A    between atoms: _262  and  _263
REMARK  110  A    between atoms: _266  and  _268
REMARK  111  A    between atoms: _268  and  _269
REMARK  112  A    between atoms: _268  and  _271
REMARK  113  A    between atoms: _271  and  _272
REMARK  114  A    between atoms: _272  and  _273
REMARK  115  A    between atoms: _273  and  _274
REMARK  116  A    between atoms: _283  and  _285
REMARK  117  A    between atoms: _285  and  _286
REMARK  118  A    between atoms: _285  and  _288
REMARK  119  A    between atoms: _288  and  _289
REMARK  120  A    between atoms: _292  and  _294
REMARK  121  A    between atoms: _294  and  _295
REMARK  122  A    between atoms: _294  and  _297
REMARK  123  A    between atoms: _297  and  _298
REMARK  124  A    between atoms: _298  and  _299
REMARK  125  A    between atoms: _299  and  _300
REMARK  126  A    between atoms: _309  and  _311
REMARK  127  A    between atoms: _311  and  _312
REMARK  128  A    between atoms: _311  and  _314
REMARK  129  A    between atoms: _314  and  _315
REMARK  130  A    between atoms: _317  and  _319
REMARK  131  A    between atoms: _319  and  _320
REMARK  132  A    between atoms: _319  and  _322
REMARK  133  A    between atoms: _322  and  _323
REMARK  134  A    between atoms: _326  and  _328
REMARK  135  A    between atoms: _328  and  _329
REMARK  136  A    between atoms: _328  and  _331
REMARK  137  A    between atoms: _331  and  _332
REMARK  138  A    between atoms: _334  and  _336
REMARK  139  A    between atoms: _336  and  _337
REMARK  140  A    between atoms: _336  and  _339
REMARK  141  A    between atoms: _339  and  _340
REMARK  142  A    between atoms: _343  and  _345
REMARK  143  A    between atoms: _345  and  _346
REMARK  144  A    between atoms: _345  and  _348
REMARK  145  A    between atoms: _348  and  _349
REMARK  146  A    between atoms: _349  and  _350
REMARK  147  A    between atoms: _353  and  _355
REMARK  148  A    between atoms: _355  and  _356
REMARK  149  A    between atoms: _355  and  _358
REMARK  150  A    between atoms: _358  and  _359
REMARK  151  A    between atoms: _364  and  _365
REMARK  152  A    between atoms: _367  and  _369
REMARK  153  A    between atoms: _369  and  _370
REMARK  154  A    between atoms: _369  and  _372
REMARK  155  A    between atoms: _372  and  _373
REMARK  156  A    between atoms: _376  and  _378
REMARK  157  A    between atoms: _378  and  _379
REMARK  158  A    between atoms: _378  and  _381
REMARK  159  A    between atoms: _381  and  _382
REMARK  160  A    between atoms: _386  and  _387
REMARK  161  A    between atoms: _392  and  _394
REMARK  162  A    between atoms: _394  and  _395
REMARK  163  A    between atoms: _394  and  _397
REMARK  164  A    between atoms: _397  and  _398
REMARK  165  A    between atoms: _398  and  _399
REMARK  166  A    between atoms: _401  and  _403
REMARK  167  A    between atoms: _403  and  _404
REMARK  168  A    between atoms: _403  and  _406
REMARK  169  A    between atoms: _406  and  _407
REMARK  170  A    between atoms: _413  and  _415
REMARK  171  A    between atoms: _415  and  _416
REMARK  172  A    between atoms: _415  and  _418
REMARK  173  A    between atoms: _418  and  _419
REMARK  174  A    between atoms: _424  and  _425
REMARK  175  A    between atoms: _427  and  _429
REMARK  176  A    between atoms: _429  and  _430
REMARK  177  A    between atoms: _429  and  _432
REMARK  178  A    between atoms: _432  and  _433
REMARK  179  A    between atoms: _438  and  _440
REMARK  180  A    between atoms: _440  and  _441
REMARK  181  A    between atoms: _440  and  _443
REMARK  182  A    between atoms: _443  and  _444
REMARK  183  A    between atoms: _449  and  _451
REMARK  184  A    between atoms: _451  and  _452
REMARK  185  A    between atoms: _451  and  _454
REMARK  186  A    between atoms: _454  and  _455
REMARK  187  A    between atoms: _460  and  _462
REMARK  188  A    between atoms: _462  and  _463
REMARK  189  A    between atoms: _462  and  _465
REMARK  190  A    between atoms: _465  and  _466
REMARK  191  A    between atoms: _471  and  _473
REMARK  192  A    between atoms: _473  and  _474
REMARK  193  A    between atoms: _477  and  _479
REMARK  194  A    between atoms: _479  and  _480
REMARK  195  A    between atoms: _479  and  _482
REMARK  196  A    between atoms: _482  and  _483
REMARK  197  A    between atoms: _483  and  _484
REMARK  198  A    between atoms: _487  and  _489
REMARK  199  A    between atoms: _489  and  _490
REMARK  200  A    between atoms: _489  and  _492
REMARK  201  A    between atoms: _492  and  _493
REMARK  202  A    between atoms: _493  and  _494
REMARK  203  A    between atoms: _496  and  _498
REMARK  204  A    between atoms: _498  and  _499
REMARK  205  A    between atoms: _498  and  _501
REMARK  206  A    between atoms: _501  and  _502
REMARK  207  A    between atoms: _505  and  _507
REMARK  208  A    between atoms: _507  and  _508
REMARK  209  A    between atoms: _507  and  _510
REMARK  210  A    between atoms: _510  and  _511
REMARK  211  A    between atoms: _511  and  _512
REMARK  212  A    between atoms: _514  and  _516
REMARK  213  A    between atoms: _516  and  _517
REMARK  214  A    between atoms: _516  and  _519
REMARK  215  A    between atoms: _519  and  _520
REMARK  216  A    between atoms: _522  and  _524
REMARK  217  A    between atoms: _524  and  _525
REMARK  218  A    between atoms: _524  and  _527
REMARK  219  A    between atoms: _527  and  _528
REMARK  220  A    between atoms: _538  and  _540
REMARK  221  A    between atoms: _540  and  _541
REMARK  222  A    between atoms: _540  and  _543
REMARK  223  A    between atoms: _543  and  _544
REMARK  224  A    between atoms: _544  and  _545
REMARK  225  A    between atoms: _545  and  _546
REMARK  226  A    between atoms: _555  and  _557
REMARK  227  A    between atoms: _557  and  _558
REMARK  228  A    between atoms: _557  and  _560
REMARK  229  A    between atoms: _563  and  _565
REMARK  230  A    between atoms: _565  and  _566
REMARK  231  A    between atoms: _565  and  _568
REMARK  232  A    between atoms: _568  and  _569
REMARK  233  A    between atoms: _569  and  _570
REMARK  234  A    between atoms: _573  and  _575
REMARK  235  A    between atoms: _575  and  _576
REMARK  236  A    between atoms: _575  and  _578
REMARK  237  A    between atoms: _578  and  _579
REMARK  238  A    between atoms: _582  and  _584
REMARK  239  A    between atoms: _584  and  _585
REMARK  240  A    between atoms: _584  and  _587
REMARK  241  A    between atoms: _587  and  _588
REMARK  242  A    between atoms: _591  and  _593
REMARK  243  A    between atoms: _593  and  _594
REMARK  244  A    between atoms: _593  and  _596
REMARK  245  A    between atoms: _596  and  _597
REMARK                            x       y       z     vdW  Elec       q    Type
REMARK                         _______ _______ _______ _____ _____    ______ ____
ROOT
ATOM      1  CA  PHE A   6      13.237  10.945 -14.611  0.00  0.00    +0.153 C 
ENDROOT
BRANCH   1   2
ATOM      2  C   PHE A   6      14.527  10.580 -13.879  0.00  0.00    +0.241 C 
ATOM      3  N   LEU A   7      14.601   9.344 -13.340  0.00  0.00    -0.297 N 
ATOM      4  H   LEU A   7      13.791   8.696 -13.414  0.00  0.00    +0.150 HD
ATOM      5  O   PHE A   6      15.454  11.372 -13.824  0.00  0.00    -0.273 OA
BRANCH   3   6
ATOM      6  CA  LEU A   7      15.839   8.907 -12.641  0.00  0.00    +0.149 C 
BRANCH   6   7
ATOM      7  C   LEU A   7      17.068   8.813 -13.584  0.00  0.00    +0.241 C 
ATOM      8  O   LEU A   7      18.183   9.327 -13.276  0.00  0.00    -0.273 OA
ATOM      9  N   ARG A   8      16.866   8.262 -14.777  0.00  0.00    -0.297 N 
ATOM     10  H   ARG A   8      15.956   7.801 -14.980  0.00  0.00    +0.150 HD
BRANCH   9  11
ATOM     11  CA  ARG A   8      17.906   8.293 -15.813  0.00  0.00    +0.149 C 
BRANCH  11  12
ATOM     12  C   ARG A   8      18.322   9.691 -16.182  0.00  0.00    +0.241 C 
ATOM     13  O   ARG A   8      19.509   9.941 -16.303  0.00  0.00    -0.273 OA
ATOM     14  N   SER A   9      17.384  10.604 -16.369  0.00  0.00    -0.295 N 
ATOM     15  H   SER A   9      16.382  10.329 -16.328  0.00  0.00    +0.150 HD
BRANCH  14  16
ATOM     16  CA  SER A   9      17.748  12.016 -16.636  0.00  0.00    +0.178 C 
BRANCH  16  17
ATOM     17  C   SER A   9      18.569  12.615 -15.517  0.00  0.00    +0.243 C 
ATOM     18  N   ALA A  10      18.272  12.295 -14.228  0.00  0.00    -0.298 N 
ATOM     19  H   ALA A  10      17.449  11.692 -14.025  0.00  0.00    +0.150 HD
ATOM     20  O   SER A   9      19.463  13.421 -15.836  0.00  0.00    -0.273 OA
BRANCH  18  21
ATOM     21  CA  ALA A  10      19.099  12.790 -13.121  0.00  0.00    +0.137 C 
ATOM     22  CB  ALA A  10      18.440  12.478 -11.727  0.00  0.00    +0.030 C 
BRANCH  21  23
ATOM     23  C   ALA A  10      20.531  12.213 -13.186  0.00  0.00    +0.227 C 
ATOM     24  O   ALA A  10      21.506  12.974 -13.002  0.00  0.00    -0.286 OA
ENDBRANCH  21  23
ENDBRANCH  18  21
ENDBRANCH  16  17
BRANCH  16  25
ATOM     25  CB  SER A   9      16.502  12.873 -16.937  0.00  0.00    +0.166 C 
BRANCH  25  26
ATOM     26  OG  SER A   9      15.766  13.252 -15.759  0.00  0.00    -0.380 OA
ATOM     27  H   SER A   9      15.459  12.438 -15.287  0.00  0.00    +0.211 HD
ENDBRANCH  25  26
ENDBRANCH  16  25
ENDBRANCH  14  16
ENDBRANCH  11  12
BRANCH  11  28
ATOM     28  CB  ARG A   8      17.495   7.522 -17.064  0.00  0.00    +0.033 C 
BRANCH  28  29
ATOM     29  CG  ARG A   8      18.549   7.559 -18.189  0.00  0.00    +0.045 C 
BRANCH  29  30
ATOM     30  CD  ARG A   8      19.801   6.828 -17.798  0.00  0.00    +0.174 C 
BRANCH  30  31
ATOM     31  NE  ARG A   8      20.600   6.628 -19.016  0.00  0.00    -0.265 N 
ATOM     32  CZ  ARG A   8      21.932   6.521 -19.097  0.00  0.00    +0.342 C 
ATOM     33  NH2 ARG A   8      22.730   6.599 -18.007  0.00  0.00    -0.292 N 
ATOM     34 HH21 ARG A   8      22.312   6.747 -17.066  0.00  0.00    +0.255 HD
ATOM     35 HH22 ARG A   8      23.761   6.511 -18.110  0.00  0.00    +0.255 HD
ATOM     36  NH1 ARG A   8      22.477   6.341 -20.298  0.00  0.00    -0.292 N 
ATOM     37 HH11 ARG A   8      23.509   6.254 -20.393  0.00  0.00    +0.255 HD
ATOM     38 HH12 ARG A   8      21.871   6.287 -21.141  0.00  0.00    +0.255 HD
ATOM     39  HE  ARG A   8      20.074   6.563 -19.911  0.00  0.00    +0.259 HD
ENDBRANCH  30  31
ENDBRANCH  29  30
ENDBRANCH  28  29
ENDBRANCH  11  28
ENDBRANCH   9  11
ENDBRANCH   6   7
BRANCH   6  40
ATOM     40  CB  LEU A   7      15.663   7.478 -12.095  0.00  0.00    +0.029 C 
BRANCH  40  41
ATOM     41  CG  LEU A   7      15.651   7.226 -10.620  0.00  0.00    +0.002 C 
ATOM     42  CD2 LEU A   7      16.579   8.105  -9.685  0.00  0.00    +0.000 C 
ATOM     43  CD1 LEU A   7      15.889   5.686 -10.459  0.00  0.00    +0.000 C 
ENDBRANCH  40  41
ENDBRANCH   6  40
ENDBRANCH   3   6
ENDBRANCH   1   2
BRANCH   1  45
ATOM     44  C   MET A   5      13.612   9.296 -16.395  0.00  0.00    +0.241 C 
ATOM     45  N   PHE A   6      12.815   9.768 -15.430  0.00  0.00    -0.297 N 
ATOM     46  H   PHE A   6      11.897   9.314 -15.249  0.00  0.00    +0.150 HD
ATOM     47  O   MET A   5      14.645   9.952 -16.751  0.00  0.00    -0.273 OA
BRANCH  44  48
ATOM     48  CA  MET A   5      13.096   8.082 -17.226  0.00  0.00    +0.149 C 
BRANCH  48  51
ATOM     49  C   ALA A   4      13.263   6.425 -15.439  0.00  0.00    +0.241 C 
ATOM     50  O   ALA A   4      14.480   6.597 -15.325  0.00  0.00    -0.273 OA
ATOM     51  N   MET A   5      12.490   7.021 -16.357  0.00  0.00    -0.297 N 
ATOM     52  H   MET A   5      11.491   6.753 -16.464  0.00  0.00    +0.150 HD
BRANCH  49  53
ATOM     53  CA  ALA A   4      12.537   5.502 -14.512  0.00  0.00    +0.149 C 
ATOM     54  CB  ALA A   4      12.402   4.077 -15.214  0.00  0.00    +0.031 C 
BRANCH  53  57
ATOM     55  C   GLU A   3      11.143   7.088 -13.385  0.00  0.00    +0.241 C 
ATOM     56  O   GLU A   3      12.128   7.713 -12.970  0.00  0.00    -0.273 OA
ATOM     57  N   ALA A   4      11.256   5.970 -14.112  0.00  0.00    -0.297 N 
ATOM     58  H   ALA A   4      10.403   5.442 -14.385  0.00  0.00    +0.150 HD
BRANCH  55  59
ATOM     59  CA  GLU A   3       9.758   7.568 -13.068  0.00  0.00    +0.149 C 
BRANCH  59  61
ATOM     60  C   VAL A   2       9.053   8.162 -15.305  0.00  0.00    +0.241 C 
ATOM     61  N   GLU A   3       8.788   7.487 -14.213  0.00  0.00    -0.297 N 
ATOM     62  H   GLU A   3       7.927   6.909 -14.141  0.00  0.00    +0.150 HD
ATOM     63  O   VAL A   2      10.050   8.906 -15.387  0.00  0.00    -0.273 OA
BRANCH  60  64
ATOM     64  CA  VAL A   2       8.057   8.030 -16.447  0.00  0.00    +0.148 C 
BRANCH  64  66
ATOM     65  C   ALA A   1       8.799   5.798 -17.079  0.00  0.00    +0.238 C 
ATOM     66  N   VAL A   2       7.788   6.629 -16.799  0.00  0.00    -0.297 N 
ATOM     67  H   VAL A   2       6.808   6.282 -16.831  0.00  0.00    +0.150 HD
ATOM     68  O   ALA A   1       9.997   6.187 -17.186  0.00  0.00    -0.274 OA
BRANCH  65  69
ATOM     69  CA  ALA A   1       8.454   4.359 -17.411  0.00  0.00    +0.145 C 
ATOM     70  CB  ALA A   1       7.881   4.266 -18.798  0.00  0.00    +0.028 C 
BRANCH  69  71
ATOM     71  N   ALA A   1       7.528   3.760 -16.397  0.00  0.00    -0.238 NA
ATOM     72  H   ALA A   1       6.610   3.376 -16.700  0.00  0.00    +0.142 HD
ENDBRANCH  69  71
ENDBRANCH  65  69
ENDBRANCH  64  66
BRANCH  64  73
ATOM     73  CB  VAL A   2       6.737   8.844 -16.156  0.00  0.00    +0.027 C 
ATOM     74  CG2 VAL A   2       7.083  10.263 -15.676  0.00  0.00    +0.002 C 
ATOM     75  CG1 VAL A   2       5.966   8.986 -17.440  0.00  0.00    +0.002 C 
ENDBRANCH  64  73
ENDBRANCH  60  64
ENDBRANCH  59  61
BRANCH  59  76
ATOM     76  CB  GLU A   3       9.200   6.811 -11.875  0.00  0.00    +0.041 C 
BRANCH  76  77
ATOM     77  CG  GLU A   3       7.958   7.565 -11.331  0.00  0.00    +0.116 C 
BRANCH  77  78
ATOM     78  CD  GLU A   3       6.996   6.651 -10.516  0.00  0.00    +0.365 C 
ATOM     79  OE2 GLU A   3       7.507   5.928  -9.623  0.00  0.00    -0.246 OA
ATOM     80  OE1 GLU A   3       5.765   6.745 -10.807  0.00  0.00    -0.246 OA
ENDBRANCH  77  78
ENDBRANCH  76  77
ENDBRANCH  59  76
ENDBRANCH  55  59
ENDBRANCH  53  57
ENDBRANCH  49  53
ENDBRANCH  48  51
BRANCH  48  81
ATOM     81  CB  MET A   5      12.039   8.507 -18.278  0.00  0.00    +0.041 C 
BRANCH  81  82
ATOM     82  CG  MET A   5      11.759   7.363 -19.339  0.00  0.00    +0.060 C 
BRANCH  82  83
ATOM     83  SD  MET A   5      13.183   7.274 -20.547  0.00  0.00    -0.139 S 
ATOM     84  CE  MET A   5      12.796   8.743 -21.546  0.00  0.00    +0.069 C 
ENDBRANCH  82  83
ENDBRANCH  81  82
ENDBRANCH  48  81
ENDBRANCH  44  48
ENDBRANCH   1  45
BRANCH   1  85
ATOM     85  CB  PHE A   6      12.183  11.186 -13.543  0.00  0.00    +0.055 C 
BRANCH  85  86
ATOM     86  CG  PHE A   6      10.935  11.877 -14.037  0.00  0.00    -0.020 A 
ATOM     87  CD2 PHE A   6       9.870  12.045 -13.134  0.00  0.00    -0.004 A 
ATOM     88  CE2 PHE A   6       8.695  12.799 -13.521  0.00  0.00    -0.000 A 
ATOM     89  CZ  PHE A   6       8.648  13.346 -14.828  0.00  0.00    -0.000 A 
ATOM     90  CE1 PHE A   6       9.700  13.101 -15.733  0.00  0.00    -0.000 A 
ATOM     91  CD1 PHE A   6      10.841  12.410 -15.330  0.00  0.00    -0.004 A 
ENDBRANCH  85  86
ENDBRANCH   1  85
TORSDOF 37
REMARK  Name = ../refined-set-2016/4oiv/4oiv_pocket.pdb
REMARK  245 active torsions:
REMARK  status: ('A' for Active; 'I' for Inactive)
REMARK    1  A    between atoms: _1  and  _3
REMARK    2  A    between atoms: _3  and  _4
REMARK    3  A    between atoms: _3  and  _6
REMARK    4  A    between atoms: _6  and  _7
REMARK    5  A    between atoms: _12  and  _14
REMARK    6  A    between atoms: _14  and  _15
REMARK    7  A    between atoms: _14  and  _17
REMARK    8  A    between atoms: _17  and  _18
REMARK    9  A    between atoms: _24  and  _26
REMARK   10  A    between atoms: _26  and  _27
REMARK   11  A    between atoms: _26  and  _29
REMARK   12  A    between atoms: _29  and  _30
REMARK   13  A    between atoms: _33  and  _35
REMARK   14  A    between atoms: _35  and  _36
REMARK   15  A    between atoms: _35  and  _38
REMARK   16  A    between atoms: _38  and  _39
REMARK   17  A    between atoms: _42  and  _44
REMARK   18  A    between atoms: _44  and  _45
REMARK   19  A    between atoms: _44  and  _47
REMARK   20  A    between atoms: _47  and  _48
REMARK   21  A    between atoms: _51  and  _53
REMARK   22  A    between atoms: _53  and  _54
REMARK   23  A    between atoms: _53  and  _56
REMARK   24  A    between atoms: _56  and  _57
REMARK   25  A    between atoms: _60  and  _62
REMARK   26  A    between atoms: _62  and  _63
REMARK   27  A    between atoms: _62  and  _65
REMARK   28  A    between atoms: _65  and  _66
REMARK   29  A    between atoms: _66  and  _67
REMARK   30  A    between atoms: _70  and  _72
REMARK   31  A    between atoms: _72  and  _73
REMARK   32  A    between atoms: _72  and  _75
REMARK   33  A    between atoms: _75  and  _76
REMARK   34  A    between atoms: _76  and  _77
REMARK   35  A    between atoms: _79  and  _81
REMARK   36  A    between atoms: _81  and  _82
REMARK   37  A    between atoms: _85  and  _87
REMARK   38  A    between atoms: _87  and  _88
REMARK   39  A    between atoms: _87  and  _90
REMARK   40  A    between atoms: _90  and  _91
REMARK   41  A    between atoms: _94  and  _96
REMARK   42  A    between atoms: _96  and  _97
REMARK   43  A    between atoms: _96  and  _99
REMARK   44  A    between atoms: _99  and  _100
REMARK   45  A    between atoms: _105  and  _107
REMARK   46  A    between atoms: _107  and  _108
REMARK   47  A    between atoms: _107  and  _110
REMARK   48  A    between atoms: _110  and  _111
REMARK   49  A    between atoms: _116  and  _118
REMARK   50  A    between atoms: _118  and  _119
REMARK   51  A    between atoms: _118  and  _121
REMARK   52  A    between atoms: _124  and  _126
REMARK   53  A    between atoms: _126  and  _127
REMARK   54  A    between atoms: _126  and  _129
REMARK   55  A    between atoms: _129  and  _130
REMARK   56  A    between atoms: _130  and  _131
REMARK   57  A    between atoms: _136  and  _138
REMARK   58  A    between atoms: _138  and  _139
REMARK   59  A    between atoms: _138  and  _141
REMARK   60  A    between atoms: _141  and  _142
REMARK   61  A    between atoms: _145  and  _147
REMARK   62  A    between atoms: _147  and  _148
REMARK   63  A    between atoms: _151  and  _153
REMARK   64  A    between atoms: _153  and  _154
REMARK   65  A    between atoms: _153  and  _156
REMARK   66  A    between atoms: _159  and  _161
REMARK   67  A    between atoms: _161  and  _162
REMARK   68  A    between atoms: _161  and  _164
REMARK   69  A    between atoms: _164  and  _165
REMARK   70  A    between atoms: _165  and  _166
REMARK   71  A    between atoms: _169  and  _171
REMARK   72  A    between atoms: _171  and  _172
REMARK   73  A    between atoms: _175  and  _177
REMARK   74  A    between atoms: _177  and  _178
REMARK   75  A    between atoms: _177  and  _180
REMARK   76  A    between atoms: _180  and  _181
REMARK   77  A    between atoms: _181  and  _182
REMARK   78  A    between atoms: _184  and  _186
REMARK   79  A    between atoms: _186  and  _187
REMARK   80  A    between atoms: _186  and  _189
REMARK   81  A    between atoms: _189  and  _190
REMARK   82  A    between atoms: _196  and  _198
REMARK   83  A    between atoms: _198  and  _199
REMARK   84  A    between atoms: _198  and  _201
REMARK   85  A    between atoms: _201  and  _202
REMARK   86  A    between atoms: _205  and  _207
REMARK   87  A    between atoms: _207  and  _208
REMARK   88  A    between atoms: _207  and  _210
REMARK   89  A    between atoms: _210  and  _211
REMARK   90  A    between atoms: _211  and  _212
REMARK   91  A    between atoms: _212  and  _213
REMARK   92  A    between atoms: _222  and  _224
REMARK   93  A    between atoms: _224  and  _225
REMARK   94  A    between atoms: _224  and  _227
REMARK   95  A    between atoms: _227  and  _228
REMARK   96  A    between atoms: _230  and  _232
REMARK   97  A    between atoms: _232  and  _233
REMARK   98  A    between atoms: _236  and  _238
REMARK   99  A    between atoms: _238  and  _239
REMARK  100  A    between atoms: _238  and  _241
REMARK  101  A    between atoms: _241  and  _242
REMARK  102  A    between atoms: _245  and  _247
REMARK  103  A    between atoms: _247  and  _248
REMARK  104  A    between atoms: _247  and  _250
REMARK  105  A    between atoms: _250  and  _251
REMARK  106  A    between atoms: _257  and  _259
REMARK  107  A    between atoms: _259  and  _260
REMARK  108  A    between atoms: _259  and  _262
REMARK  109  A    between atoms: _262  and  _263
REMARK  110  A    between atoms: _266  and  _268
REMARK  111  A    between atoms: _268  and  _269
REMARK  112  A    between atoms: _268  and  _271
REMARK  113  A    between atoms: _271  and  _272
REMARK  114  A    between atoms: _272  and  _273
REMARK  115  A    between atoms: _273  and  _274
REMARK  116  A    between atoms: _283  and  _285
REMARK  117  A    between atoms: _285  and  _286
REMARK  118  A    between atoms: _285  and  _288
REMARK  119  A    between atoms: _288  and  _289
REMARK  120  A    between atoms: _292  and  _294
REMARK  121  A    between atoms: _294  and  _295
REMARK  122  A    between atoms: _294  and  _297
REMARK  123  A    between atoms: _297  and  _298
REMARK  124  A    between atoms: _298  and  _299
REMARK  125  A    between atoms: _299  and  _300
REMARK  126  A    between atoms: _309  and  _311
REMARK  127  A    between atoms: _311  and  _312
REMARK  128  A    between atoms: _311  and  _314
REMARK  129  A    between atoms: _314  and  _315
REMARK  130  A    between atoms: _317  and  _319
REMARK  131  A    between atoms: _319  and  _320
REMARK  132  A    between atoms: _319  and  _322
REMARK  133  A    between atoms: _322  and  _323
REMARK  134  A    between atoms: _326  and  _328
REMARK  135  A    between atoms: _328  and  _329
REMARK  136  A    between atoms: _328  and  _331
REMARK  137  A    between atoms: _331  and  _332
REMARK  138  A    between atoms: _334  and  _336
REMARK  139  A    between atoms: _336  and  _337
REMARK  140  A    between atoms: _336  and  _339
REMARK  141  A    between atoms: _339  and  _340
REMARK  142  A    between atoms: _343  and  _345
REMARK  143  A    between atoms: _345  and  _346
REMARK  144  A    between atoms: _345  and  _348
REMARK  145  A    between atoms: _348  and  _349
REMARK  146  A    between atoms: _349  and  _350
REMARK  147  A    between atoms: _353  and  _355
REMARK  148  A    between atoms: _355  and  _356
REMARK  149  A    between atoms: _355  and  _358
REMARK  150  A    between atoms: _358  and  _359
REMARK  151  A    between atoms: _364  and  _365
REMARK  152  A    between atoms: _367  and  _369
REMARK  153  A    between atoms: _369  and  _370
REMARK  154  A    between atoms: _369  and  _372
REMARK  155  A    between atoms: _372  and  _373
REMARK  156  A    between atoms: _376  and  _378
REMARK  157  A    between atoms: _378  and  _379
REMARK  158  A    between atoms: _378  and  _381
REMARK  159  A    between atoms: _381  and  _382
REMARK  160  A    between atoms: _386  and  _387
REMARK  161  A    between atoms: _392  and  _394
REMARK  162  A    between atoms: _394  and  _395
REMARK  163  A    between atoms: _394  and  _397
REMARK  164  A    between atoms: _397  and  _398
REMARK  165  A    between atoms: _398  and  _399
REMARK  166  A    between atoms: _401  and  _403
REMARK  167  A    between atoms: _403  and  _404
REMARK  168  A    between atoms: _403  and  _406
REMARK  169  A    between atoms: _406  and  _407
REMARK  170  A    between atoms: _413  and  _415
REMARK  171  A    between atoms: _415  and  _416
REMARK  172  A    between atoms: _415  and  _418
REMARK  173  A    between atoms: _418  and  _419
REMARK  174  A    between atoms: _424  and  _425
REMARK  175  A    between atoms: _427  and  _429
REMARK  176  A    between atoms: _429  and  _430
REMARK  177  A    between atoms: _429  and  _432
REMARK  178  A    between atoms: _432  and  _433
REMARK  179  A    between atoms: _438  and  _440
REMARK  180  A    between atoms: _440  and  _441
REMARK  181  A    between atoms: _440  and  _443
REMARK  182  A    between atoms: _443  and  _444
REMARK  183  A    between atoms: _449  and  _451
REMARK  184  A    between atoms: _451  and  _452
REMARK  185  A    between atoms: _451  and  _454
REMARK  186  A    between atoms: _454  and  _455
REMARK  187  A    between atoms: _460  and  _462
REMARK  188  A    between atoms: _462  and  _463
REMARK  189  A    between atoms: _462  and  _465
REMARK  190  A    between atoms: _465  and  _466
REMARK  191  A    between atoms: _471  and  _473
REMARK  192  A    between atoms: _473  and  _474
REMARK  193  A    between atoms: _477  and  _479
REMARK  194  A    between atoms: _479  and  _480
REMARK  195  A    between atoms: _479  and  _482
REMARK  196  A    between atoms: _482  and  _483
REMARK  197  A    between atoms: _483  and  _484
REMARK  198  A    between atoms: _487  and  _489
REMARK  199  A    between atoms: _489  and  _490
REMARK  200  A    between atoms: _489  and  _492
REMARK  201  A    between atoms: _492  and  _493
REMARK  202  A    between atoms: _493  and  _494
REMARK  203  A    between atoms: _496  and  _498
REMARK  204  A    between atoms: _498  and  _499
REMARK  205  A    between atoms: _498  and  _501
REMARK  206  A    between atoms: _501  and  _502
REMARK  207  A    between atoms: _505  and  _507
REMARK  208  A    between atoms: _507  and  _508
REMARK  209  A    between atoms: _507  and  _510
REMARK  210  A    between atoms: _510  and  _511
REMARK  211  A    between atoms: _511  and  _512
REMARK  212  A    between atoms: _514  and  _516
REMARK  213  A    between atoms: _516  and  _517
REMARK  214  A    between atoms: _516  and  _519
REMARK  215  A    between atoms: _519  and  _520
REMARK  216  A    between atoms: _522  and  _524
REMARK  217  A    between atoms: _524  and  _525
REMARK  218  A    between atoms: _524  and  _527
REMARK  219  A    between atoms: _527  and  _528
REMARK  220  A    between atoms: _538  and  _540
REMARK  221  A    between atoms: _540  and  _541
REMARK  222  A    between atoms: _540  and  _543
REMARK  223  A    between atoms: _543  and  _544
REMARK  224  A    between atoms: _544  and  _545
REMARK  225  A    between atoms: _545  and  _546
REMARK  226  A    between atoms: _555  and  _557
REMARK  227  A    between atoms: _557  and  _558
REMARK  228  A    between atoms: _557  and  _560
REMARK  229  A    between atoms: _563  and  _565
REMARK  230  A    between atoms: _565  and  _566
REMARK  231  A    between atoms: _565  and  _568
REMARK  232  A    between atoms: _568  and  _569
REMARK  233  A    between atoms: _569  and  _570
REMARK  234  A    between atoms: _573  and  _575
REMARK  235  A    between atoms: _575  and  _576
REMARK  236  A    between atoms: _575  and  _578
REMARK  237  A    between atoms: _578  and  _579
REMARK  238  A    between atoms: _582  and  _584
REMARK  239  A    between atoms: _584  and  _585
REMARK  240  A    between atoms: _584  and  _587
REMARK  241  A    between atoms: _587  and  _588
REMARK  242  A    between atoms: _591  and  _593
REMARK  243  A    between atoms: _593  and  _594
REMARK  244  A    between atoms: _593  and  _596
REMARK  245  A    between atoms: _596  and  _597
REMARK                            x       y       z     vdW  Elec       q    Type
REMARK                         _______ _______ _______ _____ _____    ______ ____
ROOT
ATOM      1  C   ILE A   1      23.200  13.362 -16.628  0.00  0.00    +0.238 C 
ATOM      2  N   PHE A   2      22.228  14.053 -16.078  0.00  0.00    -0.302 N 
ATOM      3  H   PHE A   2      21.342  13.576 -15.817  0.00  0.00    +0.150 HD
ATOM      4  O   ILE A   1      24.289  13.838 -16.866  0.00  0.00    -0.274 OA
ENDROOT
BRANCH   1   5
ATOM      5  CA  ILE A   1      22.926  11.927 -16.957  0.00  0.00    +0.145 C 
BRANCH   5   6
ATOM      6  N   ILE A   1      22.282  11.254 -15.851  0.00  0.00    -0.238 NA
ATOM      7  H   ILE A   1      21.300  10.937 -15.979  0.00  0.00    +0.142 HD
ENDBRANCH   5   6
BRANCH   5   8
ATOM      8  CB  ILE A   1      22.149  11.835 -18.231  0.00  0.00    +0.025 C 
ATOM      9  CG2 ILE A   1      22.917  12.498 -19.345  0.00  0.00    +0.002 C 
BRANCH   8  10
ATOM     10  CG1 ILE A   1      22.135  10.373 -18.591  0.00  0.00    +0.002 C 
ATOM     11  CD1 ILE A   1      23.549   9.703 -19.054  0.00  0.00    +0.000 C 
ENDBRANCH   8  10
ENDBRANCH   5   8
ENDBRANCH   1   5
BRANCH   2  12
ATOM     12  CA  PHE A   2      22.375  15.462 -15.832  0.00  0.00    +0.109 C 
BRANCH  12  13
ATOM     13  C   PHE A   2      23.522  15.663 -14.869  0.00  0.00    +0.202 C 
ATOM     14  O   PHE A   2      24.374  16.601 -15.119  0.00  0.00    -0.219 OA
ENDBRANCH  12  13
BRANCH  12  15
ATOM     15  CB  PHE A   2      21.109  16.091 -15.295  0.00  0.00    +0.049 C 
BRANCH  15  16
ATOM     16  CG  PHE A   2      21.221  17.544 -15.066  0.00  0.00    -0.020 A 
ATOM     17  CD2 PHE A   2      21.751  18.063 -13.842  0.00  0.00    -0.004 A 
ATOM     18  CE2 PHE A   2      21.811  19.482 -13.612  0.00  0.00    -0.000 A 
ATOM     19  CZ  PHE A   2      21.425  20.378 -14.639  0.00  0.00    -0.000 A 
ATOM     20  CE1 PHE A   2      20.921  19.881 -15.860  0.00  0.00    -0.000 A 
ATOM     21  CD1 PHE A   2      20.802  18.434 -16.056  0.00  0.00    -0.004 A 
ENDBRANCH  15  16
ENDBRANCH  12  15
ENDBRANCH   2  12
TORSDOF 8
REMARK  Name = ../refined-set-2016/4oiv/4oiv_pocket.pdb
REMARK  245 active torsions:
REMARK  status: ('A' for Active; 'I' for Inactive)
REMARK    1  A    between atoms: _1  and  _3
REMARK    2  A    between atoms: _3  and  _4
REMARK    3  A    between atoms: _3  and  _6
REMARK    4  A    between atoms: _6  and  _7
REMARK    5  A    between atoms: _12  and  _14
REMARK    6  A    between atoms: _14  and  _15
REMARK    7  A    between atoms: _14  and  _17
REMARK    8  A    between atoms: _17  and  _18
REMARK    9  A    between atoms: _24  and  _26
REMARK   10  A    between atoms: _26  and  _27
REMARK   11  A    between atoms: _26  and  _29
REMARK   12  A    between atoms: _29  and  _30
REMARK   13  A    between atoms: _33  and  _35
REMARK   14  A    between atoms: _35  and  _36
REMARK   15  A    between atoms: _35  and  _38
REMARK   16  A    between atoms: _38  and  _39
REMARK   17  A    between atoms: _42  and  _44
REMARK   18  A    between atoms: _44  and  _45
REMARK   19  A    between atoms: _44  and  _47
REMARK   20  A    between atoms: _47  and  _48
REMARK   21  A    between atoms: _51  and  _53
REMARK   22  A    between atoms: _53  and  _54
REMARK   23  A    between atoms: _53  and  _56
REMARK   24  A    between atoms: _56  and  _57
REMARK   25  A    between atoms: _60  and  _62
REMARK   26  A    between atoms: _62  and  _63
REMARK   27  A    between atoms: _62  and  _65
REMARK   28  A    between atoms: _65  and  _66
REMARK   29  A    between atoms: _66  and  _67
REMARK   30  A    between atoms: _70  and  _72
REMARK   31  A    between atoms: _72  and  _73
REMARK   32  A    between atoms: _72  and  _75
REMARK   33  A    between atoms: _75  and  _76
REMARK   34  A    between atoms: _76  and  _77
REMARK   35  A    between atoms: _79  and  _81
REMARK   36  A    between atoms: _81  and  _82
REMARK   37  A    between atoms: _85  and  _87
REMARK   38  A    between atoms: _87  and  _88
REMARK   39  A    between atoms: _87  and  _90
REMARK   40  A    between atoms: _90  and  _91
REMARK   41  A    between atoms: _94  and  _96
REMARK   42  A    between atoms: _96  and  _97
REMARK   43  A    between atoms: _96  and  _99
REMARK   44  A    between atoms: _99  and  _100
REMARK   45  A    between atoms: _105  and  _107
REMARK   46  A    between atoms: _107  and  _108
REMARK   47  A    between atoms: _107  and  _110
REMARK   48  A    between atoms: _110  and  _111
REMARK   49  A    between atoms: _116  and  _118
REMARK   50  A    between atoms: _118  and  _119
REMARK   51  A    between atoms: _118  and  _121
REMARK   52  A    between atoms: _124  and  _126
REMARK   53  A    between atoms: _126  and  _127
REMARK   54  A    between atoms: _126  and  _129
REMARK   55  A    between atoms: _129  and  _130
REMARK   56  A    between atoms: _130  and  _131
REMARK   57  A    between atoms: _136  and  _138
REMARK   58  A    between atoms: _138  and  _139
REMARK   59  A    between atoms: _138  and  _141
REMARK   60  A    between atoms: _141  and  _142
REMARK   61  A    between atoms: _145  and  _147
REMARK   62  A    between atoms: _147  and  _148
REMARK   63  A    between atoms: _151  and  _153
REMARK   64  A    between atoms: _153  and  _154
REMARK   65  A    between atoms: _153  and  _156
REMARK   66  A    between atoms: _159  and  _161
REMARK   67  A    between atoms: _161  and  _162
REMARK   68  A    between atoms: _161  and  _164
REMARK   69  A    between atoms: _164  and  _165
REMARK   70  A    between atoms: _165  and  _166
REMARK   71  A    between atoms: _169  and  _171
REMARK   72  A    between atoms: _171  and  _172
REMARK   73  A    between atoms: _175  and  _177
REMARK   74  A    between atoms: _177  and  _178
REMARK   75  A    between atoms: _177  and  _180
REMARK   76  A    between atoms: _180  and  _181
REMARK   77  A    between atoms: _181  and  _182
REMARK   78  A    between atoms: _184  and  _186
REMARK   79  A    between atoms: _186  and  _187
REMARK   80  A    between atoms: _186  and  _189
REMARK   81  A    between atoms: _189  and  _190
REMARK   82  A    between atoms: _196  and  _198
REMARK   83  A    between atoms: _198  and  _199
REMARK   84  A    between atoms: _198  and  _201
REMARK   85  A    between atoms: _201  and  _202
REMARK   86  A    between atoms: _205  and  _207
REMARK   87  A    between atoms: _207  and  _208
REMARK   88  A    between atoms: _207  and  _210
REMARK   89  A    between atoms: _210  and  _211
REMARK   90  A    between atoms: _211  and  _212
REMARK   91  A    between atoms: _212  and  _213
REMARK   92  A    between atoms: _222  and  _224
REMARK   93  A    between atoms: _224  and  _225
REMARK   94  A    between atoms: _224  and  _227
REMARK   95  A    between atoms: _227  and  _228
REMARK   96  A    between atoms: _230  and  _232
REMARK   97  A    between atoms: _232  and  _233
REMARK   98  A    between atoms: _236  and  _238
REMARK   99  A    between atoms: _238  and  _239
REMARK  100  A    between atoms: _238  and  _241
REMARK  101  A    between atoms: _241  and  _242
REMARK  102  A    between atoms: _245  and  _247
REMARK  103  A    between atoms: _247  and  _248
REMARK  104  A    between atoms: _247  and  _250
REMARK  105  A    between atoms: _250  and  _251
REMARK  106  A    between atoms: _257  and  _259
REMARK  107  A    between atoms: _259  and  _260
REMARK  108  A    between atoms: _259  and  _262
REMARK  109  A    between atoms: _262  and  _263
REMARK  110  A    between atoms: _266  and  _268
REMARK  111  A    between atoms: _268  and  _269
REMARK  112  A    between atoms: _268  and  _271
REMARK  113  A    between atoms: _271  and  _272
REMARK  114  A    between atoms: _272  and  _273
REMARK  115  A    between atoms: _273  and  _274
REMARK  116  A    between atoms: _283  and  _285
REMARK  117  A    between atoms: _285  and  _286
REMARK  118  A    between atoms: _285  and  _288
REMARK  119  A    between atoms: _288  and  _289
REMARK  120  A    between atoms: _292  and  _294
REMARK  121  A    between atoms: _294  and  _295
REMARK  122  A    between atoms: _294  and  _297
REMARK  123  A    between atoms: _297  and  _298
REMARK  124  A    between atoms: _298  and  _299
REMARK  125  A    between atoms: _299  and  _300
REMARK  126  A    between atoms: _309  and  _311
REMARK  127  A    between atoms: _311  and  _312
REMARK  128  A    between atoms: _311  and  _314
REMARK  129  A    between atoms: _314  and  _315
REMARK  130  A    between atoms: _317  and  _319
REMARK  131  A    between atoms: _319  and  _320
REMARK  132  A    between atoms: _319  and  _322
REMARK  133  A    between atoms: _322  and  _323
REMARK  134  A    between atoms: _326  and  _328
REMARK  135  A    between atoms: _328  and  _329
REMARK  136  A    between atoms: _328  and  _331
REMARK  137  A    between atoms: _331  and  _332
REMARK  138  A    between atoms: _334  and  _336
REMARK  139  A    between atoms: _336  and  _337
REMARK  140  A    between atoms: _336  and  _339
REMARK  141  A    between atoms: _339  and  _340
REMARK  142  A    between atoms: _343  and  _345
REMARK  143  A    between atoms: _345  and  _346
REMARK  144  A    between atoms: _345  and  _348
REMARK  145  A    between atoms: _348  and  _349
REMARK  146  A    between atoms: _349  and  _350
REMARK  147  A    between atoms: _353  and  _355
REMARK  148  A    between atoms: _355  and  _356
REMARK  149  A    between atoms: _355  and  _358
REMARK  150  A    between atoms: _358  and  _359
REMARK  151  A    between atoms: _364  and  _365
REMARK  152  A    between atoms: _367  and  _369
REMARK  153  A    between atoms: _369  and  _370
REMARK  154  A    between atoms: _369  and  _372
REMARK  155  A    between atoms: _372  and  _373
REMARK  156  A    between atoms: _376  and  _378
REMARK  157  A    between atoms: _378  and  _379
REMARK  158  A    between atoms: _378  and  _381
REMARK  159  A    between atoms: _381  and  _382
REMARK  160  A    between atoms: _386  and  _387
REMARK  161  A    between atoms: _392  and  _394
REMARK  162  A    between atoms: _394  and  _395
REMARK  163  A    between atoms: _394  and  _397
REMARK  164  A    between atoms: _397  and  _398
REMARK  165  A    between atoms: _398  and  _399
REMARK  166  A    between atoms: _401  and  _403
REMARK  167  A    between atoms: _403  and  _404
REMARK  168  A    between atoms: _403  and  _406
REMARK  169  A    between atoms: _406  and  _407
REMARK  170  A    between atoms: _413  and  _415
REMARK  171  A    between atoms: _415  and  _416
REMARK  172  A    between atoms: _415  and  _418
REMARK  173  A    between atoms: _418  and  _419
REMARK  174  A    between atoms: _424  and  _425
REMARK  175  A    between atoms: _427  and  _429
REMARK  176  A    between atoms: _429  and  _430
REMARK  177  A    between atoms: _429  and  _432
REMARK  178  A    between atoms: _432  and  _433
REMARK  179  A    between atoms: _438  and  _440
REMARK  180  A    between atoms: _440  and  _441
REMARK  181  A    between atoms: _440  and  _443
REMARK  182  A    between atoms: _443  and  _444
REMARK  183  A    between atoms: _449  and  _451
REMARK  184  A    between atoms: _451  and  _452
REMARK  185  A    between atoms: _451  and  _454
REMARK  186  A    between atoms: _454  and  _455
REMARK  187  A    between atoms: _460  and  _462
REMARK  188  A    between atoms: _462  and  _463
REMARK  189  A    between atoms: _462  and  _465
REMARK  190  A    between atoms: _465  and  _466
REMARK  191  A    between atoms: _471  and  _473
REMARK  192  A    between atoms: _473  and  _474
REMARK  193  A    between atoms: _477  and  _479
REMARK  194  A    between atoms: _479  and  _480
REMARK  195  A    between atoms: _479  and  _482
REMARK  196  A    between atoms: _482  and  _483
REMARK  197  A    between atoms: _483  and  _484
REMARK  198  A    between atoms: _487  and  _489
REMARK  199  A    between atoms: _489  and  _490
REMARK  200  A    between atoms: _489  and  _492
REMARK  201  A    between atoms: _492  and  _493
REMARK  202  A    between atoms: _493  and  _494
REMARK  203  A    between atoms: _496  and  _498
REMARK  204  A    between atoms: _498  and  _499
REMARK  205  A    between atoms: _498  and  _501
REMARK  206  A    between atoms: _501  and  _502
REMARK  207  A    between atoms: _505  and  _507
REMARK  208  A    between atoms: _507  and  _508
REMARK  209  A    between atoms: _507  and  _510
REMARK  210  A    between atoms: _510  and  _511
REMARK  211  A    between atoms: _511  and  _512
REMARK  212  A    between atoms: _514  and  _516
REMARK  213  A    between atoms: _516  and  _517
REMARK  214  A    between atoms: _516  and  _519
REMARK  215  A    between atoms: _519  and  _520
REMARK  216  A    between atoms: _522  and  _524
REMARK  217  A    between atoms: _524  and  _525
REMARK  218  A    between atoms: _524  and  _527
REMARK  219  A    between atoms: _527  and  _528
REMARK  220  A    between atoms: _538  and  _540
REMARK  221  A    between atoms: _540  and  _541
REMARK  222  A    between atoms: _540  and  _543
REMARK  223  A    between atoms: _543  and  _544
REMARK  224  A    between atoms: _544  and  _545
REMARK  225  A    between atoms: _545  and  _546
REMARK  226  A    between atoms: _555  and  _557
REMARK  227  A    between atoms: _557  and  _558
REMARK  228  A    between atoms: _557  and  _560
REMARK  229  A    between atoms: _563  and  _565
REMARK  230  A    between atoms: _565  and  _566
REMARK  231  A    between atoms: _565  and  _568
REMARK  232  A    between atoms: _568  and  _569
REMARK  233  A    between atoms: _569  and  _570
REMARK  234  A    between atoms: _573  and  _575
REMARK  235  A    between atoms: _575  and  _576
REMARK  236  A    between atoms: _575  and  _578
REMARK  237  A    between atoms: _578  and  _579
REMARK  238  A    between atoms: _582  and  _584
REMARK  239  A    between atoms: _584  and  _585
REMARK  240  A    between atoms: _584  and  _587
REMARK  241  A    between atoms: _587  and  _588
REMARK  242  A    between atoms: _591  and  _593
REMARK  243  A    between atoms: _593  and  _594
REMARK  244  A    between atoms: _593  and  _596
REMARK  245  A    between atoms: _596  and  _597
REMARK                            x       y       z     vdW  Elec       q    Type
REMARK                         _______ _______ _______ _____ _____    ______ ____
ROOT
ATOM      1  CA  LEU A   1      22.956  20.058 -21.102  0.00  0.00    +0.133 C 
ENDROOT
BRANCH   1   2
ATOM      2  N   LEU A   1      24.288  20.735 -21.152  0.00  0.00    -0.239 NA
ATOM      3  H   LEU A   1      25.102  20.343 -20.637  0.00  0.00    +0.142 HD
ENDBRANCH   1   2
BRANCH   1   4
ATOM      4  C   LEU A   1      21.958  20.967 -20.391  0.00  0.00    +0.224 C 
ATOM      5  O   LEU A   1      20.853  21.186 -20.872  0.00  0.00    -0.287 OA
ENDBRANCH   1   4
BRANCH   1   6
ATOM      6  CB  LEU A   1      23.106  18.703 -20.391  0.00  0.00    +0.025 C 
BRANCH   6   7
ATOM      7  CG  LEU A   1      21.996  17.645 -20.646  0.00  0.00    +0.002 C 
ATOM      8  CD2 LEU A   1      21.640  16.557 -19.577  0.00  0.00    +0.000 C 
ATOM      9  CD1 LEU A   1      20.899  17.971 -21.638  0.00  0.00    +0.000 C 
ENDBRANCH   6   7
ENDBRANCH   1   6
TORSDOF 4
REMARK  Name = ../refined-set-2016/4oiv/4oiv_pocket.pdb
REMARK  245 active torsions:
REMARK  status: ('A' for Active; 'I' for Inactive)
REMARK    1  A    between atoms: _1  and  _3
REMARK    2  A    between atoms: _3  and  _4
REMARK    3  A    between atoms: _3  and  _6
REMARK    4  A    between atoms: _6  and  _7
REMARK    5  A    between atoms: _12  and  _14
REMARK    6  A    between atoms: _14  and  _15
REMARK    7  A    between atoms: _14  and  _17
REMARK    8  A    between atoms: _17  and  _18
REMARK    9  A    between atoms: _24  and  _26
REMARK   10  A    between atoms: _26  and  _27
REMARK   11  A    between atoms: _26  and  _29
REMARK   12  A    between atoms: _29  and  _30
REMARK   13  A    between atoms: _33  and  _35
REMARK   14  A    between atoms: _35  and  _36
REMARK   15  A    between atoms: _35  and  _38
REMARK   16  A    between atoms: _38  and  _39
REMARK   17  A    between atoms: _42  and  _44
REMARK   18  A    between atoms: _44  and  _45
REMARK   19  A    between atoms: _44  and  _47
REMARK   20  A    between atoms: _47  and  _48
REMARK   21  A    between atoms: _51  and  _53
REMARK   22  A    between atoms: _53  and  _54
REMARK   23  A    between atoms: _53  and  _56
REMARK   24  A    between atoms: _56  and  _57
REMARK   25  A    between atoms: _60  and  _62
REMARK   26  A    between atoms: _62  and  _63
REMARK   27  A    between atoms: _62  and  _65
REMARK   28  A    between atoms: _65  and  _66
REMARK   29  A    between atoms: _66  and  _67
REMARK   30  A    between atoms: _70  and  _72
REMARK   31  A    between atoms: _72  and  _73
REMARK   32  A    between atoms: _72  and  _75
REMARK   33  A    between atoms: _75  and  _76
REMARK   34  A    between atoms: _76  and  _77
REMARK   35  A    between atoms: _79  and  _81
REMARK   36  A    between atoms: _81  and  _82
REMARK   37  A    between atoms: _85  and  _87
REMARK   38  A    between atoms: _87  and  _88
REMARK   39  A    between atoms: _87  and  _90
REMARK   40  A    between atoms: _90  and  _91
REMARK   41  A    between atoms: _94  and  _96
REMARK   42  A    between atoms: _96  and  _97
REMARK   43  A    between atoms: _96  and  _99
REMARK   44  A    between atoms: _99  and  _100
REMARK   45  A    between atoms: _105  and  _107
REMARK   46  A    between atoms: _107  and  _108
REMARK   47  A    between atoms: _107  and  _110
REMARK   48  A    between atoms: _110  and  _111
REMARK   49  A    between atoms: _116  and  _118
REMARK   50  A    between atoms: _118  and  _119
REMARK   51  A    between atoms: _118  and  _121
REMARK   52  A    between atoms: _124  and  _126
REMARK   53  A    between atoms: _126  and  _127
REMARK   54  A    between atoms: _126  and  _129
REMARK   55  A    between atoms: _129  and  _130
REMARK   56  A    between atoms: _130  and  _131
REMARK   57  A    between atoms: _136  and  _138
REMARK   58  A    between atoms: _138  and  _139
REMARK   59  A    between atoms: _138  and  _141
REMARK   60  A    between atoms: _141  and  _142
REMARK   61  A    between atoms: _145  and  _147
REMARK   62  A    between atoms: _147  and  _148
REMARK   63  A    between atoms: _151  and  _153
REMARK   64  A    between atoms: _153  and  _154
REMARK   65  A    between atoms: _153  and  _156
REMARK   66  A    between atoms: _159  and  _161
REMARK   67  A    between atoms: _161  and  _162
REMARK   68  A    between atoms: _161  and  _164
REMARK   69  A    between atoms: _164  and  _165
REMARK   70  A    between atoms: _165  and  _166
REMARK   71  A    between atoms: _169  and  _171
REMARK   72  A    between atoms: _171  and  _172
REMARK   73  A    between atoms: _175  and  _177
REMARK   74  A    between atoms: _177  and  _178
REMARK   75  A    between atoms: _177  and  _180
REMARK   76  A    between atoms: _180  and  _181
REMARK   77  A    between atoms: _181  and  _182
REMARK   78  A    between atoms: _184  and  _186
REMARK   79  A    between atoms: _186  and  _187
REMARK   80  A    between atoms: _186  and  _189
REMARK   81  A    between atoms: _189  and  _190
REMARK   82  A    between atoms: _196  and  _198
REMARK   83  A    between atoms: _198  and  _199
REMARK   84  A    between atoms: _198  and  _201
REMARK   85  A    between atoms: _201  and  _202
REMARK   86  A    between atoms: _205  and  _207
REMARK   87  A    between atoms: _207  and  _208
REMARK   88  A    between atoms: _207  and  _210
REMARK   89  A    between atoms: _210  and  _211
REMARK   90  A    between atoms: _211  and  _212
REMARK   91  A    between atoms: _212  and  _213
REMARK   92  A    between atoms: _222  and  _224
REMARK   93  A    between atoms: _224  and  _225
REMARK   94  A    between atoms: _224  and  _227
REMARK   95  A    between atoms: _227  and  _228
REMARK   96  A    between atoms: _230  and  _232
REMARK   97  A    between atoms: _232  and  _233
REMARK   98  A    between atoms: _236  and  _238
REMARK   99  A    between atoms: _238  and  _239
REMARK  100  A    between atoms: _238  and  _241
REMARK  101  A    between atoms: _241  and  _242
REMARK  102  A    between atoms: _245  and  _247
REMARK  103  A    between atoms: _247  and  _248
REMARK  104  A    between atoms: _247  and  _250
REMARK  105  A    between atoms: _250  and  _251
REMARK  106  A    between atoms: _257  and  _259
REMARK  107  A    between atoms: _259  and  _260
REMARK  108  A    between atoms: _259  and  _262
REMARK  109  A    between atoms: _262  and  _263
REMARK  110  A    between atoms: _266  and  _268
REMARK  111  A    between atoms: _268  and  _269
REMARK  112  A    between atoms: _268  and  _271
REMARK  113  A    between atoms: _271  and  _272
REMARK  114  A    between atoms: _272  and  _273
REMARK  115  A    between atoms: _273  and  _274
REMARK  116  A    between atoms: _283  and  _285
REMARK  117  A    between atoms: _285  and  _286
REMARK  118  A    between atoms: _285  and  _288
REMARK  119  A    between atoms: _288  and  _289
REMARK  120  A    between atoms: _292  and  _294
REMARK  121  A    between atoms: _294  and  _295
REMARK  122  A    between atoms: _294  and  _297
REMARK  123  A    between atoms: _297  and  _298
REMARK  124  A    between atoms: _298  and  _299
REMARK  125  A    between atoms: _299  and  _300
REMARK  126  A    between atoms: _309  and  _311
REMARK  127  A    between atoms: _311  and  _312
REMARK  128  A    between atoms: _311  and  _314
REMARK  129  A    between atoms: _314  and  _315
REMARK  130  A    between atoms: _317  and  _319
REMARK  131  A    between atoms: _319  and  _320
REMARK  132  A    between atoms: _319  and  _322
REMARK  133  A    between atoms: _322  and  _323
REMARK  134  A    between atoms: _326  and  _328
REMARK  135  A    between atoms: _328  and  _329
REMARK  136  A    between atoms: _328  and  _331
REMARK  137  A    between atoms: _331  and  _332
REMARK  138  A    between atoms: _334  and  _336
REMARK  139  A    between atoms: _336  and  _337
REMARK  140  A    between atoms: _336  and  _339
REMARK  141  A    between atoms: _339  and  _340
REMARK  142  A    between atoms: _343  and  _345
REMARK  143  A    between atoms: _345  and  _346
REMARK  144  A    between atoms: _345  and  _348
REMARK  145  A    between atoms: _348  and  _349
REMARK  146  A    between atoms: _349  and  _350
REMARK  147  A    between atoms: _353  and  _355
REMARK  148  A    between atoms: _355  and  _356
REMARK  149  A    between atoms: _355  and  _358
REMARK  150  A    between atoms: _358  and  _359
REMARK  151  A    between atoms: _364  and  _365
REMARK  152  A    between atoms: _367  and  _369
REMARK  153  A    between atoms: _369  and  _370
REMARK  154  A    between atoms: _369  and  _372
REMARK  155  A    between atoms: _372  and  _373
REMARK  156  A    between atoms: _376  and  _378
REMARK  157  A    between atoms: _378  and  _379
REMARK  158  A    between atoms: _378  and  _381
REMARK  159  A    between atoms: _381  and  _382
REMARK  160  A    between atoms: _386  and  _387
REMARK  161  A    between atoms: _392  and  _394
REMARK  162  A    between atoms: _394  and  _395
REMARK  163  A    between atoms: _394  and  _397
REMARK  164  A    between atoms: _397  and  _398
REMARK  165  A    between atoms: _398  and  _399
REMARK  166  A    between atoms: _401  and  _403
REMARK  167  A    between atoms: _403  and  _404
REMARK  168  A    between atoms: _403  and  _406
REMARK  169  A    between atoms: _406  and  _407
REMARK  170  A    between atoms: _413  and  _415
REMARK  171  A    between atoms: _415  and  _416
REMARK  172  A    between atoms: _415  and  _418
REMARK  173  A    between atoms: _418  and  _419
REMARK  174  A    between atoms: _424  and  _425
REMARK  175  A    between atoms: _427  and  _429
REMARK  176  A    between atoms: _429  and  _430
REMARK  177  A    between atoms: _429  and  _432
REMARK  178  A    between atoms: _432  and  _433
REMARK  179  A    between atoms: _438  and  _440
REMARK  180  A    between atoms: _440  and  _441
REMARK  181  A    between atoms: _440  and  _443
REMARK  182  A    between atoms: _443  and  _444
REMARK  183  A    between atoms: _449  and  _451
REMARK  184  A    between atoms: _451  and  _452
REMARK  185  A    between atoms: _451  and  _454
REMARK  186  A    between atoms: _454  and  _455
REMARK  187  A    between atoms: _460  and  _462
REMARK  188  A    between atoms: _462  and  _463
REMARK  189  A    between atoms: _462  and  _465
REMARK  190  A    between atoms: _465  and  _466
REMARK  191  A    between atoms: _471  and  _473
REMARK  192  A    between atoms: _473  and  _474
REMARK  193  A    between atoms: _477  and  _479
REMARK  194  A    between atoms: _479  and  _480
REMARK  195  A    between atoms: _479  and  _482
REMARK  196  A    between atoms: _482  and  _483
REMARK  197  A    between atoms: _483  and  _484
REMARK  198  A    between atoms: _487  and  _489
REMARK  199  A    between atoms: _489  and  _490
REMARK  200  A    between atoms: _489  and  _492
REMARK  201  A    between atoms: _492  and  _493
REMARK  202  A    between atoms: _493  and  _494
REMARK  203  A    between atoms: _496  and  _498
REMARK  204  A    between atoms: _498  and  _499
REMARK  205  A    between atoms: _498  and  _501
REMARK  206  A    between atoms: _501  and  _502
REMARK  207  A    between atoms: _505  and  _507
REMARK  208  A    between atoms: _507  and  _508
REMARK  209  A    between atoms: _507  and  _510
REMARK  210  A    between atoms: _510  and  _511
REMARK  211  A    between atoms: _511  and  _512
REMARK  212  A    between atoms: _514  and  _516
REMARK  213  A    between atoms: _516  and  _517
REMARK  214  A    between atoms: _516  and  _519
REMARK  215  A    between atoms: _519  and  _520
REMARK  216  A    between atoms: _522  and  _524
REMARK  217  A    between atoms: _524  and  _525
REMARK  218  A    between atoms: _524  and  _527
REMARK  219  A    between atoms: _527  and  _528
REMARK  220  A    between atoms: _538  and  _540
REMARK  221  A    between atoms: _540  and  _541
REMARK  222  A    between atoms: _540  and  _543
REMARK  223  A    between atoms: _543  and  _544
REMARK  224  A    between atoms: _544  and  _545
REMARK  225  A    between atoms: _545  and  _546
REMARK  226  A    between atoms: _555  and  _557
REMARK  227  A    between atoms: _557  and  _558
REMARK  228  A    between atoms: _557  and  _560
REMARK  229  A    between atoms: _563  and  _565
REMARK  230  A    between atoms: _565  and  _566
REMARK  231  A    between atoms: _565  and  _568
REMARK  232  A    between atoms: _568  and  _569
REMARK  233  A    between atoms: _569  and  _570
REMARK  234  A    between atoms: _573  and  _575
REMARK  235  A    between atoms: _575  and  _576
REMARK  236  A    between atoms: _575  and  _578
REMARK  237  A    between atoms: _578  and  _579
REMARK  238  A    between atoms: _582  and  _584
REMARK  239  A    between atoms: _584  and  _585
REMARK  240  A    between atoms: _584  and  _587
REMARK  241  A    between atoms: _587  and  _588
REMARK  242  A    between atoms: _591  and  _593
REMARK  243  A    between atoms: _593  and  _594
REMARK  244  A    between atoms: _593  and  _596
REMARK  245  A    between atoms: _596  and  _597
REMARK                            x       y       z     vdW  Elec       q    Type
REMARK                         _______ _______ _______ _____ _____    ______ ____
ROOT
ATOM      1  CA  ILE A   2      17.197  22.451 -21.387  0.00  0.00    +0.148 C 
ENDROOT
BRANCH   1   3
ATOM      2  C   ARG A   1      18.620  23.135 -23.220  0.00  0.00    +0.238 C 
ATOM      3  N   ILE A   2      18.499  22.484 -22.045  0.00  0.00    -0.297 N 
ATOM      4  H   ILE A   2      19.320  22.013 -21.615  0.00  0.00    +0.150 HD
ATOM      5  O   ARG A   1      17.643  23.578 -23.795  0.00  0.00    -0.274 OA
BRANCH   2   6
ATOM      6  CA  ARG A   1      19.991  23.260 -23.823  0.00  0.00    +0.145 C 
BRANCH   6   7
ATOM      7  N   ARG A   1      20.967  23.802 -22.815  0.00  0.00    -0.238 NA
ATOM      8  H   ARG A   1      21.813  23.248 -22.572  0.00  0.00    +0.142 HD
ENDBRANCH   6   7
BRANCH   6   9
ATOM      9  CB  ARG A   1      20.397  21.893 -24.374  0.00  0.00    +0.030 C 
BRANCH   9  10
ATOM     10  CG  ARG A   1      21.630  21.926 -25.203  0.00  0.00    +0.045 C 
BRANCH  10  11
ATOM     11  CD  ARG A   1      21.686  20.590 -25.981  0.00  0.00    +0.174 C 
BRANCH  11  12
ATOM     12  NE  ARG A   1      22.931  20.372 -26.696  0.00  0.00    -0.265 N 
ATOM     13  HE  ARG A   1      23.467  19.512 -26.462  0.00  0.00    +0.259 HD
ATOM     14  CZ  ARG A   1      23.451  21.178 -27.629  0.00  0.00    +0.342 C 
ATOM     15  NH2 ARG A   1      22.880  22.342 -27.985  0.00  0.00    -0.292 N 
ATOM     16 HH21 ARG A   1      21.997  22.649 -27.529  0.00  0.00    +0.255 HD
ATOM     17 HH22 ARG A   1      23.321  22.936 -28.716  0.00  0.00    +0.255 HD
ATOM     18  NH1 ARG A   1      24.593  20.809 -28.203  0.00  0.00    -0.292 N 
ATOM     19 HH11 ARG A   1      25.052  19.919 -27.922  0.00  0.00    +0.255 HD
ATOM     20 HH12 ARG A   1      25.027  21.410 -28.932  0.00  0.00    +0.255 HD
ENDBRANCH  11  12
ENDBRANCH  10  11
ENDBRANCH   9  10
ENDBRANCH   6   9
ENDBRANCH   2   6
ENDBRANCH   1   3
BRANCH   1  21
ATOM     21  C   ILE A   2      16.521  23.831 -21.148  0.00  0.00    +0.241 C 
ATOM     22  N   ARG A   3      17.293  24.811 -20.626  0.00  0.00    -0.298 N 
ATOM     23  H   ARG A   3      18.284  24.605 -20.389  0.00  0.00    +0.150 HD
ATOM     24  O   ILE A   2      15.303  23.975 -21.365  0.00  0.00    -0.273 OA
BRANCH  22  25
ATOM     25  CA  ARG A   3      16.777  26.123 -20.393  0.00  0.00    +0.137 C 
BRANCH  25  26
ATOM     26  C   ARG A   3      16.423  26.889 -21.692  0.00  0.00    +0.227 C 
ATOM     27  O   ARG A   3      15.723  27.869 -21.634  0.00  0.00    -0.286 OA
ENDBRANCH  25  26
BRANCH  25  28
ATOM     28  CB  ARG A   3      17.805  26.966 -19.602  0.00  0.00    +0.031 C 
BRANCH  28  29
ATOM     29  CG  ARG A   3      17.883  26.492 -18.099  0.00  0.00    +0.045 C 
BRANCH  29  30
ATOM     30  CD  ARG A   3      18.915  27.479 -17.401  0.00  0.00    +0.174 C 
BRANCH  30  31
ATOM     31  NE  ARG A   3      19.252  27.018 -16.066  0.00  0.00    -0.265 N 
ATOM     32  CZ  ARG A   3      18.374  27.009 -15.064  0.00  0.00    +0.342 C 
ATOM     33  NH2 ARG A   3      18.747  26.577 -13.871  0.00  0.00    -0.292 N 
ATOM     34 HH21 ARG A   3      18.066  26.568 -13.085  0.00  0.00    +0.255 HD
ATOM     35 HH22 ARG A   3      19.721  26.247 -13.719  0.00  0.00    +0.255 HD
ATOM     36  NH1 ARG A   3      17.135  27.438 -15.242  0.00  0.00    -0.292 N 
ATOM     37 HH11 ARG A   3      16.461  27.425 -14.450  0.00  0.00    +0.255 HD
ATOM     38 HH12 ARG A   3      16.835  27.789 -16.174  0.00  0.00    +0.255 HD
ATOM     39  HE  ARG A   3      20.219  26.681 -15.884  0.00  0.00    +0.259 HD
ENDBRANCH  30  31
ENDBRANCH  29  30
ENDBRANCH  28  29
ENDBRANCH  25  28
ENDBRANCH  22  25
ENDBRANCH   1  21
BRANCH   1  40
ATOM     40  CB  ILE A   2      17.287  21.624 -19.994  0.00  0.00    +0.027 C 
ATOM     41  CG2 ILE A   2      15.921  21.736 -19.198  0.00  0.00    +0.002 C 
BRANCH  40  42
ATOM     42  CG1 ILE A   2      17.653  20.197 -20.299  0.00  0.00    +0.002 C 
ATOM     43  CD1 ILE A   2      18.112  19.360 -19.083  0.00  0.00    +0.000 C 
ENDBRANCH  40  42
ENDBRANCH   1  40
TORSDOF 16
REMARK  Name = ../refined-set-2016/4oiv/4oiv_pocket.pdb
REMARK  245 active torsions:
REMARK  status: ('A' for Active; 'I' for Inactive)
REMARK    1  A    between atoms: _1  and  _3
REMARK    2  A    between atoms: _3  and  _4
REMARK    3  A    between atoms: _3  and  _6
REMARK    4  A    between atoms: _6  and  _7
REMARK    5  A    between atoms: _12  and  _14
REMARK    6  A    between atoms: _14  and  _15
REMARK    7  A    between atoms: _14  and  _17
REMARK    8  A    between atoms: _17  and  _18
REMARK    9  A    between atoms: _24  and  _26
REMARK   10  A    between atoms: _26  and  _27
REMARK   11  A    between atoms: _26  and  _29
REMARK   12  A    between atoms: _29  and  _30
REMARK   13  A    between atoms: _33  and  _35
REMARK   14  A    between atoms: _35  and  _36
REMARK   15  A    between atoms: _35  and  _38
REMARK   16  A    between atoms: _38  and  _39
REMARK   17  A    between atoms: _42  and  _44
REMARK   18  A    between atoms: _44  and  _45
REMARK   19  A    between atoms: _44  and  _47
REMARK   20  A    between atoms: _47  and  _48
REMARK   21  A    between atoms: _51  and  _53
REMARK   22  A    between atoms: _53  and  _54
REMARK   23  A    between atoms: _53  and  _56
REMARK   24  A    between atoms: _56  and  _57
REMARK   25  A    between atoms: _60  and  _62
REMARK   26  A    between atoms: _62  and  _63
REMARK   27  A    between atoms: _62  and  _65
REMARK   28  A    between atoms: _65  and  _66
REMARK   29  A    between atoms: _66  and  _67
REMARK   30  A    between atoms: _70  and  _72
REMARK   31  A    between atoms: _72  and  _73
REMARK   32  A    between atoms: _72  and  _75
REMARK   33  A    between atoms: _75  and  _76
REMARK   34  A    between atoms: _76  and  _77
REMARK   35  A    between atoms: _79  and  _81
REMARK   36  A    between atoms: _81  and  _82
REMARK   37  A    between atoms: _85  and  _87
REMARK   38  A    between atoms: _87  and  _88
REMARK   39  A    between atoms: _87  and  _90
REMARK   40  A    between atoms: _90  and  _91
REMARK   41  A    between atoms: _94  and  _96
REMARK   42  A    between atoms: _96  and  _97
REMARK   43  A    between atoms: _96  and  _99
REMARK   44  A    between atoms: _99  and  _100
REMARK   45  A    between atoms: _105  and  _107
REMARK   46  A    between atoms: _107  and  _108
REMARK   47  A    between atoms: _107  and  _110
REMARK   48  A    between atoms: _110  and  _111
REMARK   49  A    between atoms: _116  and  _118
REMARK   50  A    between atoms: _118  and  _119
REMARK   51  A    between atoms: _118  and  _121
REMARK   52  A    between atoms: _124  and  _126
REMARK   53  A    between atoms: _126  and  _127
REMARK   54  A    between atoms: _126  and  _129
REMARK   55  A    between atoms: _129  and  _130
REMARK   56  A    between atoms: _130  and  _131
REMARK   57  A    between atoms: _136  and  _138
REMARK   58  A    between atoms: _138  and  _139
REMARK   59  A    between atoms: _138  and  _141
REMARK   60  A    between atoms: _141  and  _142
REMARK   61  A    between atoms: _145  and  _147
REMARK   62  A    between atoms: _147  and  _148
REMARK   63  A    between atoms: _151  and  _153
REMARK   64  A    between atoms: _153  and  _154
REMARK   65  A    between atoms: _153  and  _156
REMARK   66  A    between atoms: _159  and  _161
REMARK   67  A    between atoms: _161  and  _162
REMARK   68  A    between atoms: _161  and  _164
REMARK   69  A    between atoms: _164  and  _165
REMARK   70  A    between atoms: _165  and  _166
REMARK   71  A    between atoms: _169  and  _171
REMARK   72  A    between atoms: _171  and  _172
REMARK   73  A    between atoms: _175  and  _177
REMARK   74  A    between atoms: _177  and  _178
REMARK   75  A    between atoms: _177  and  _180
REMARK   76  A    between atoms: _180  and  _181
REMARK   77  A    between atoms: _181  and  _182
REMARK   78  A    between atoms: _184  and  _186
REMARK   79  A    between atoms: _186  and  _187
REMARK   80  A    between atoms: _186  and  _189
REMARK   81  A    between atoms: _189  and  _190
REMARK   82  A    between atoms: _196  and  _198
REMARK   83  A    between atoms: _198  and  _199
REMARK   84  A    between atoms: _198  and  _201
REMARK   85  A    between atoms: _201  and  _202
REMARK   86  A    between atoms: _205  and  _207
REMARK   87  A    between atoms: _207  and  _208
REMARK   88  A    between atoms: _207  and  _210
REMARK   89  A    between atoms: _210  and  _211
REMARK   90  A    between atoms: _211  and  _212
REMARK   91  A    between atoms: _212  and  _213
REMARK   92  A    between atoms: _222  and  _224
REMARK   93  A    between atoms: _224  and  _225
REMARK   94  A    between atoms: _224  and  _227
REMARK   95  A    between atoms: _227  and  _228
REMARK   96  A    between atoms: _230  and  _232
REMARK   97  A    between atoms: _232  and  _233
REMARK   98  A    between atoms: _236  and  _238
REMARK   99  A    between atoms: _238  and  _239
REMARK  100  A    between atoms: _238  and  _241
REMARK  101  A    between atoms: _241  and  _242
REMARK  102  A    between atoms: _245  and  _247
REMARK  103  A    between atoms: _247  and  _248
REMARK  104  A    between atoms: _247  and  _250
REMARK  105  A    between atoms: _250  and  _251
REMARK  106  A    between atoms: _257  and  _259
REMARK  107  A    between atoms: _259  and  _260
REMARK  108  A    between atoms: _259  and  _262
REMARK  109  A    between atoms: _262  and  _263
REMARK  110  A    between atoms: _266  and  _268
REMARK  111  A    between atoms: _268  and  _269
REMARK  112  A    between atoms: _268  and  _271
REMARK  113  A    between atoms: _271  and  _272
REMARK  114  A    between atoms: _272  and  _273
REMARK  115  A    between atoms: _273  and  _274
REMARK  116  A    between atoms: _283  and  _285
REMARK  117  A    between atoms: _285  and  _286
REMARK  118  A    between atoms: _285  and  _288
REMARK  119  A    between atoms: _288  and  _289
REMARK  120  A    between atoms: _292  and  _294
REMARK  121  A    between atoms: _294  and  _295
REMARK  122  A    between atoms: _294  and  _297
REMARK  123  A    between atoms: _297  and  _298
REMARK  124  A    between atoms: _298  and  _299
REMARK  125  A    between atoms: _299  and  _300
REMARK  126  A    between atoms: _309  and  _311
REMARK  127  A    between atoms: _311  and  _312
REMARK  128  A    between atoms: _311  and  _314
REMARK  129  A    between atoms: _314  and  _315
REMARK  130  A    between atoms: _317  and  _319
REMARK  131  A    between atoms: _319  and  _320
REMARK  132  A    between atoms: _319  and  _322
REMARK  133  A    between atoms: _322  and  _323
REMARK  134  A    between atoms: _326  and  _328
REMARK  135  A    between atoms: _328  and  _329
REMARK  136  A    between atoms: _328  and  _331
REMARK  137  A    between atoms: _331  and  _332
REMARK  138  A    between atoms: _334  and  _336
REMARK  139  A    between atoms: _336  and  _337
REMARK  140  A    between atoms: _336  and  _339
REMARK  141  A    between atoms: _339  and  _340
REMARK  142  A    between atoms: _343  and  _345
REMARK  143  A    between atoms: _345  and  _346
REMARK  144  A    between atoms: _345  and  _348
REMARK  145  A    between atoms: _348  and  _349
REMARK  146  A    between atoms: _349  and  _350
REMARK  147  A    between atoms: _353  and  _355
REMARK  148  A    between atoms: _355  and  _356
REMARK  149  A    between atoms: _355  and  _358
REMARK  150  A    between atoms: _358  and  _359
REMARK  151  A    between atoms: _364  and  _365
REMARK  152  A    between atoms: _367  and  _369
REMARK  153  A    between atoms: _369  and  _370
REMARK  154  A    between atoms: _369  and  _372
REMARK  155  A    between atoms: _372  and  _373
REMARK  156  A    between atoms: _376  and  _378
REMARK  157  A    between atoms: _378  and  _379
REMARK  158  A    between atoms: _378  and  _381
REMARK  159  A    between atoms: _381  and  _382
REMARK  160  A    between atoms: _386  and  _387
REMARK  161  A    between atoms: _392  and  _394
REMARK  162  A    between atoms: _394  and  _395
REMARK  163  A    between atoms: _394  and  _397
REMARK  164  A    between atoms: _397  and  _398
REMARK  165  A    between atoms: _398  and  _399
REMARK  166  A    between atoms: _401  and  _403
REMARK  167  A    between atoms: _403  and  _404
REMARK  168  A    between atoms: _403  and  _406
REMARK  169  A    between atoms: _406  and  _407
REMARK  170  A    between atoms: _413  and  _415
REMARK  171  A    between atoms: _415  and  _416
REMARK  172  A    between atoms: _415  and  _418
REMARK  173  A    between atoms: _418  and  _419
REMARK  174  A    between atoms: _424  and  _425
REMARK  175  A    between atoms: _427  and  _429
REMARK  176  A    between atoms: _429  and  _430
REMARK  177  A    between atoms: _429  and  _432
REMARK  178  A    between atoms: _432  and  _433
REMARK  179  A    between atoms: _438  and  _440
REMARK  180  A    between atoms: _440  and  _441
REMARK  181  A    between atoms: _440  and  _443
REMARK  182  A    between atoms: _443  and  _444
REMARK  183  A    between atoms: _449  and  _451
REMARK  184  A    between atoms: _451  and  _452
REMARK  185  A    between atoms: _451  and  _454
REMARK  186  A    between atoms: _454  and  _455
REMARK  187  A    between atoms: _460  and  _462
REMARK  188  A    between atoms: _462  and  _463
REMARK  189  A    between atoms: _462  and  _465
REMARK  190  A    between atoms: _465  and  _466
REMARK  191  A    between atoms: _471  and  _473
REMARK  192  A    between atoms: _473  and  _474
REMARK  193  A    between atoms: _477  and  _479
REMARK  194  A    between atoms: _479  and  _480
REMARK  195  A    between atoms: _479  and  _482
REMARK  196  A    between atoms: _482  and  _483
REMARK  197  A    between atoms: _483  and  _484
REMARK  198  A    between atoms: _487  and  _489
REMARK  199  A    between atoms: _489  and  _490
REMARK  200  A    between atoms: _489  and  _492
REMARK  201  A    between atoms: _492  and  _493
REMARK  202  A    between atoms: _493  and  _494
REMARK  203  A    between atoms: _496  and  _498
REMARK  204  A    between atoms: _498  and  _499
REMARK  205  A    between atoms: _498  and  _501
REMARK  206  A    between atoms: _501  and  _502
REMARK  207  A    between atoms: _505  and  _507
REMARK  208  A    between atoms: _507  and  _508
REMARK  209  A    between atoms: _507  and  _510
REMARK  210  A    between atoms: _510  and  _511
REMARK  211  A    between atoms: _511  and  _512
REMARK  212  A    between atoms: _514  and  _516
REMARK  213  A    between atoms: _516  and  _517
REMARK  214  A    between atoms: _516  and  _519
REMARK  215  A    between atoms: _519  and  _520
REMARK  216  A    between atoms: _522  and  _524
REMARK  217  A    between atoms: _524  and  _525
REMARK  218  A    between atoms: _524  and  _527
REMARK  219  A    between atoms: _527  and  _528
REMARK  220  A    between atoms: _538  and  _540
REMARK  221  A    between atoms: _540  and  _541
REMARK  222  A    between atoms: _540  and  _543
REMARK  223  A    between atoms: _543  and  _544
REMARK  224  A    between atoms: _544  and  _545
REMARK  225  A    between atoms: _545  and  _546
REMARK  226  A    between atoms: _555  and  _557
REMARK  227  A    between atoms: _557  and  _558
REMARK  228  A    between atoms: _557  and  _560
REMARK  229  A    between atoms: _563  and  _565
REMARK  230  A    between atoms: _565  and  _566
REMARK  231  A    between atoms: _565  and  _568
REMARK  232  A    between atoms: _568  and  _569
REMARK  233  A    between atoms: _569  and  _570
REMARK  234  A    between atoms: _573  and  _575
REMARK  235  A    between atoms: _575  and  _576
REMARK  236  A    between atoms: _575  and  _578
REMARK  237  A    between atoms: _578  and  _579
REMARK  238  A    between atoms: _582  and  _584
REMARK  239  A    between atoms: _584  and  _585
REMARK  240  A    between atoms: _584  and  _587
REMARK  241  A    between atoms: _587  and  _588
REMARK  242  A    between atoms: _591  and  _593
REMARK  243  A    between atoms: _593  and  _594
REMARK  244  A    between atoms: _593  and  _596
REMARK  245  A    between atoms: _596  and  _597
REMARK                            x       y       z     vdW  Elec       q    Type
REMARK                         _______ _______ _______ _____ _____    ______ ____
ROOT
ATOM      1  CA  SER A   1      14.341  24.303 -25.575  0.00  0.00    +0.163 C 
ENDROOT
BRANCH   1   2
ATOM      2  N   SER A   1      14.839  25.396 -24.739  0.00  0.00    -0.237 NA
ATOM      3  H   SER A   1      14.347  25.626 -23.852  0.00  0.00    +0.142 HD
ENDBRANCH   1   2
BRANCH   1   4
ATOM      4  C   SER A   1      12.847  24.481 -25.771  0.00  0.00    +0.227 C 
ATOM      5  O   SER A   1      12.175  23.589 -26.305  0.00  0.00    -0.287 OA
ENDBRANCH   1   4
BRANCH   1   6
ATOM      6  CB  SER A   1      14.642  22.995 -24.869  0.00  0.00    +0.162 C 
BRANCH   6   7
ATOM      7  OG  SER A   1      13.884  22.951 -23.651  0.00  0.00    -0.380 OA
ATOM      8  H   SER A   1      14.142  23.714 -23.075  0.00  0.00    +0.211 HD
ENDBRANCH   6   7
ENDBRANCH   1   6
TORSDOF 4
REMARK  Name = ../refined-set-2016/4oiv/4oiv_pocket.pdb
REMARK  245 active torsions:
REMARK  status: ('A' for Active; 'I' for Inactive)
REMARK    1  A    between atoms: _1  and  _3
REMARK    2  A    between atoms: _3  and  _4
REMARK    3  A    between atoms: _3  and  _6
REMARK    4  A    between atoms: _6  and  _7
REMARK    5  A    between atoms: _12  and  _14
REMARK    6  A    between atoms: _14  and  _15
REMARK    7  A    between atoms: _14  and  _17
REMARK    8  A    between atoms: _17  and  _18
REMARK    9  A    between atoms: _24  and  _26
REMARK   10  A    between atoms: _26  and  _27
REMARK   11  A    between atoms: _26  and  _29
REMARK   12  A    between atoms: _29  and  _30
REMARK   13  A    between atoms: _33  and  _35
REMARK   14  A    between atoms: _35  and  _36
REMARK   15  A    between atoms: _35  and  _38
REMARK   16  A    between atoms: _38  and  _39
REMARK   17  A    between atoms: _42  and  _44
REMARK   18  A    between atoms: _44  and  _45
REMARK   19  A    between atoms: _44  and  _47
REMARK   20  A    between atoms: _47  and  _48
REMARK   21  A    between atoms: _51  and  _53
REMARK   22  A    between atoms: _53  and  _54
REMARK   23  A    between atoms: _53  and  _56
REMARK   24  A    between atoms: _56  and  _57
REMARK   25  A    between atoms: _60  and  _62
REMARK   26  A    between atoms: _62  and  _63
REMARK   27  A    between atoms: _62  and  _65
REMARK   28  A    between atoms: _65  and  _66
REMARK   29  A    between atoms: _66  and  _67
REMARK   30  A    between atoms: _70  and  _72
REMARK   31  A    between atoms: _72  and  _73
REMARK   32  A    between atoms: _72  and  _75
REMARK   33  A    between atoms: _75  and  _76
REMARK   34  A    between atoms: _76  and  _77
REMARK   35  A    between atoms: _79  and  _81
REMARK   36  A    between atoms: _81  and  _82
REMARK   37  A    between atoms: _85  and  _87
REMARK   38  A    between atoms: _87  and  _88
REMARK   39  A    between atoms: _87  and  _90
REMARK   40  A    between atoms: _90  and  _91
REMARK   41  A    between atoms: _94  and  _96
REMARK   42  A    between atoms: _96  and  _97
REMARK   43  A    between atoms: _96  and  _99
REMARK   44  A    between atoms: _99  and  _100
REMARK   45  A    between atoms: _105  and  _107
REMARK   46  A    between atoms: _107  and  _108
REMARK   47  A    between atoms: _107  and  _110
REMARK   48  A    between atoms: _110  and  _111
REMARK   49  A    between atoms: _116  and  _118
REMARK   50  A    between atoms: _118  and  _119
REMARK   51  A    between atoms: _118  and  _121
REMARK   52  A    between atoms: _124  and  _126
REMARK   53  A    between atoms: _126  and  _127
REMARK   54  A    between atoms: _126  and  _129
REMARK   55  A    between atoms: _129  and  _130
REMARK   56  A    between atoms: _130  and  _131
REMARK   57  A    between atoms: _136  and  _138
REMARK   58  A    between atoms: _138  and  _139
REMARK   59  A    between atoms: _138  and  _141
REMARK   60  A    between atoms: _141  and  _142
REMARK   61  A    between atoms: _145  and  _147
REMARK   62  A    between atoms: _147  and  _148
REMARK   63  A    between atoms: _151  and  _153
REMARK   64  A    between atoms: _153  and  _154
REMARK   65  A    between atoms: _153  and  _156
REMARK   66  A    between atoms: _159  and  _161
REMARK   67  A    between atoms: _161  and  _162
REMARK   68  A    between atoms: _161  and  _164
REMARK   69  A    between atoms: _164  and  _165
REMARK   70  A    between atoms: _165  and  _166
REMARK   71  A    between atoms: _169  and  _171
REMARK   72  A    between atoms: _171  and  _172
REMARK   73  A    between atoms: _175  and  _177
REMARK   74  A    between atoms: _177  and  _178
REMARK   75  A    between atoms: _177  and  _180
REMARK   76  A    between atoms: _180  and  _181
REMARK   77  A    between atoms: _181  and  _182
REMARK   78  A    between atoms: _184  and  _186
REMARK   79  A    between atoms: _186  and  _187
REMARK   80  A    between atoms: _186  and  _189
REMARK   81  A    between atoms: _189  and  _190
REMARK   82  A    between atoms: _196  and  _198
REMARK   83  A    between atoms: _198  and  _199
REMARK   84  A    between atoms: _198  and  _201
REMARK   85  A    between atoms: _201  and  _202
REMARK   86  A    between atoms: _205  and  _207
REMARK   87  A    between atoms: _207  and  _208
REMARK   88  A    between atoms: _207  and  _210
REMARK   89  A    between atoms: _210  and  _211
REMARK   90  A    between atoms: _211  and  _212
REMARK   91  A    between atoms: _212  and  _213
REMARK   92  A    between atoms: _222  and  _224
REMARK   93  A    between atoms: _224  and  _225
REMARK   94  A    between atoms: _224  and  _227
REMARK   95  A    between atoms: _227  and  _228
REMARK   96  A    between atoms: _230  and  _232
REMARK   97  A    between atoms: _232  and  _233
REMARK   98  A    between atoms: _236  and  _238
REMARK   99  A    between atoms: _238  and  _239
REMARK  100  A    between atoms: _238  and  _241
REMARK  101  A    between atoms: _241  and  _242
REMARK  102  A    between atoms: _245  and  _247
REMARK  103  A    between atoms: _247  and  _248
REMARK  104  A    between atoms: _247  and  _250
REMARK  105  A    between atoms: _250  and  _251
REMARK  106  A    between atoms: _257  and  _259
REMARK  107  A    between atoms: _259  and  _260
REMARK  108  A    between atoms: _259  and  _262
REMARK  109  A    between atoms: _262  and  _263
REMARK  110  A    between atoms: _266  and  _268
REMARK  111  A    between atoms: _268  and  _269
REMARK  112  A    between atoms: _268  and  _271
REMARK  113  A    between atoms: _271  and  _272
REMARK  114  A    between atoms: _272  and  _273
REMARK  115  A    between atoms: _273  and  _274
REMARK  116  A    between atoms: _283  and  _285
REMARK  117  A    between atoms: _285  and  _286
REMARK  118  A    between atoms: _285  and  _288
REMARK  119  A    between atoms: _288  and  _289
REMARK  120  A    between atoms: _292  and  _294
REMARK  121  A    between atoms: _294  and  _295
REMARK  122  A    between atoms: _294  and  _297
REMARK  123  A    between atoms: _297  and  _298
REMARK  124  A    between atoms: _298  and  _299
REMARK  125  A    between atoms: _299  and  _300
REMARK  126  A    between atoms: _309  and  _311
REMARK  127  A    between atoms: _311  and  _312
REMARK  128  A    between atoms: _311  and  _314
REMARK  129  A    between atoms: _314  and  _315
REMARK  130  A    between atoms: _317  and  _319
REMARK  131  A    between atoms: _319  and  _320
REMARK  132  A    between atoms: _319  and  _322
REMARK  133  A    between atoms: _322  and  _323
REMARK  134  A    between atoms: _326  and  _328
REMARK  135  A    between atoms: _328  and  _329
REMARK  136  A    between atoms: _328  and  _331
REMARK  137  A    between atoms: _331  and  _332
REMARK  138  A    between atoms: _334  and  _336
REMARK  139  A    between atoms: _336  and  _337
REMARK  140  A    between atoms: _336  and  _339
REMARK  141  A    between atoms: _339  and  _340
REMARK  142  A    between atoms: _343  and  _345
REMARK  143  A    between atoms: _345  and  _346
REMARK  144  A    between atoms: _345  and  _348
REMARK  145  A    between atoms: _348  and  _349
REMARK  146  A    between atoms: _349  and  _350
REMARK  147  A    between atoms: _353  and  _355
REMARK  148  A    between atoms: _355  and  _356
REMARK  149  A    between atoms: _355  and  _358
REMARK  150  A    between atoms: _358  and  _359
REMARK  151  A    between atoms: _364  and  _365
REMARK  152  A    between atoms: _367  and  _369
REMARK  153  A    between atoms: _369  and  _370
REMARK  154  A    between atoms: _369  and  _372
REMARK  155  A    between atoms: _372  and  _373
REMARK  156  A    between atoms: _376  and  _378
REMARK  157  A    between atoms: _378  and  _379
REMARK  158  A    between atoms: _378  and  _381
REMARK  159  A    between atoms: _381  and  _382
REMARK  160  A    between atoms: _386  and  _387
REMARK  161  A    between atoms: _392  and  _394
REMARK  162  A    between atoms: _394  and  _395
REMARK  163  A    between atoms: _394  and  _397
REMARK  164  A    between atoms: _397  and  _398
REMARK  165  A    between atoms: _398  and  _399
REMARK  166  A    between atoms: _401  and  _403
REMARK  167  A    between atoms: _403  and  _404
REMARK  168  A    between atoms: _403  and  _406
REMARK  169  A    between atoms: _406  and  _407
REMARK  170  A    between atoms: _413  and  _415
REMARK  171  A    between atoms: _415  and  _416
REMARK  172  A    between atoms: _415  and  _418
REMARK  173  A    between atoms: _418  and  _419
REMARK  174  A    between atoms: _424  and  _425
REMARK  175  A    between atoms: _427  and  _429
REMARK  176  A    between atoms: _429  and  _430
REMARK  177  A    between atoms: _429  and  _432
REMARK  178  A    between atoms: _432  and  _433
REMARK  179  A    between atoms: _438  and  _440
REMARK  180  A    between atoms: _440  and  _441
REMARK  181  A    between atoms: _440  and  _443
REMARK  182  A    between atoms: _443  and  _444
REMARK  183  A    between atoms: _449  and  _451
REMARK  184  A    between atoms: _451  and  _452
REMARK  185  A    between atoms: _451  and  _454
REMARK  186  A    between atoms: _454  and  _455
REMARK  187  A    between atoms: _460  and  _462
REMARK  188  A    between atoms: _462  and  _463
REMARK  189  A    between atoms: _462  and  _465
REMARK  190  A    between atoms: _465  and  _466
REMARK  191  A    between atoms: _471  and  _473
REMARK  192  A    between atoms: _473  and  _474
REMARK  193  A    between atoms: _477  and  _479
REMARK  194  A    between atoms: _479  and  _480
REMARK  195  A    between atoms: _479  and  _482
REMARK  196  A    between atoms: _482  and  _483
REMARK  197  A    between atoms: _483  and  _484
REMARK  198  A    between atoms: _487  and  _489
REMARK  199  A    between atoms: _489  and  _490
REMARK  200  A    between atoms: _489  and  _492
REMARK  201  A    between atoms: _492  and  _493
REMARK  202  A    between atoms: _493  and  _494
REMARK  203  A    between atoms: _496  and  _498
REMARK  204  A    between atoms: _498  and  _499
REMARK  205  A    between atoms: _498  and  _501
REMARK  206  A    between atoms: _501  and  _502
REMARK  207  A    between atoms: _505  and  _507
REMARK  208  A    between atoms: _507  and  _508
REMARK  209  A    between atoms: _507  and  _510
REMARK  210  A    between atoms: _510  and  _511
REMARK  211  A    between atoms: _511  and  _512
REMARK  212  A    between atoms: _514  and  _516
REMARK  213  A    between atoms: _516  and  _517
REMARK  214  A    between atoms: _516  and  _519
REMARK  215  A    between atoms: _519  and  _520
REMARK  216  A    between atoms: _522  and  _524
REMARK  217  A    between atoms: _524  and  _525
REMARK  218  A    between atoms: _524  and  _527
REMARK  219  A    between atoms: _527  and  _528
REMARK  220  A    between atoms: _538  and  _540
REMARK  221  A    between atoms: _540  and  _541
REMARK  222  A    between atoms: _540  and  _543
REMARK  223  A    between atoms: _543  and  _544
REMARK  224  A    between atoms: _544  and  _545
REMARK  225  A    between atoms: _545  and  _546
REMARK  226  A    between atoms: _555  and  _557
REMARK  227  A    between atoms: _557  and  _558
REMARK  228  A    between atoms: _557  and  _560
REMARK  229  A    between atoms: _563  and  _565
REMARK  230  A    between atoms: _565  and  _566
REMARK  231  A    between atoms: _565  and  _568
REMARK  232  A    between atoms: _568  and  _569
REMARK  233  A    between atoms: _569  and  _570
REMARK  234  A    between atoms: _573  and  _575
REMARK  235  A    between atoms: _575  and  _576
REMARK  236  A    between atoms: _575  and  _578
REMARK  237  A    between atoms: _578  and  _579
REMARK  238  A    between atoms: _582  and  _584
REMARK  239  A    between atoms: _584  and  _585
REMARK  240  A    between atoms: _584  and  _587
REMARK  241  A    between atoms: _587  and  _588
REMARK  242  A    between atoms: _591  and  _593
REMARK  243  A    between atoms: _593  and  _594
REMARK  244  A    between atoms: _593  and  _596
REMARK  245  A    between atoms: _596  and  _597
REMARK                            x       y       z     vdW  Elec       q    Type
REMARK                         _______ _______ _______ _____ _____    ______ ____
ROOT
ATOM      1  CA  TYR A   5       8.499  21.067 -15.853  0.00  0.00    +0.153 C 
ENDROOT
BRANCH   1   4
ATOM      2  C   GLU A   4       7.179  22.748 -14.733  0.00  0.00    +0.241 C 
ATOM      3  O   GLU A   4       7.066  22.058 -13.708  0.00  0.00    -0.273 OA
ATOM      4  N   TYR A   5       7.855  22.357 -15.808  0.00  0.00    -0.297 N 
ATOM      5  H   TYR A   5       7.921  22.991 -16.630  0.00  0.00    +0.150 HD
BRANCH   2   6
ATOM      6  CA  GLU A   4       6.516  24.140 -14.852  0.00  0.00    +0.149 C 
BRANCH   6   9
ATOM      7  C   ASP A   3       8.626  25.304 -15.276  0.00  0.00    +0.241 C 
ATOM      8  O   ASP A   3       9.175  24.718 -14.337  0.00  0.00    -0.273 OA
ATOM      9  N   GLU A   4       7.346  25.109 -15.591  0.00  0.00    -0.297 N 
ATOM     10  H   GLU A   4       6.925  25.650 -16.373  0.00  0.00    +0.150 HD
BRANCH   7  11
ATOM     11  CA  ASP A   3       9.421  26.281 -16.132  0.00  0.00    +0.160 C 
BRANCH  11  13
ATOM     12  C   SER A   2       8.760  25.209 -18.242  0.00  0.00    +0.243 C 
ATOM     13  N   ASP A   3       8.843  26.308 -17.468  0.00  0.00    -0.296 N 
ATOM     14  H   ASP A   3       8.481  27.210 -17.838  0.00  0.00    +0.150 HD
ATOM     15  O   SER A   2       9.218  24.141 -17.906  0.00  0.00    -0.273 OA
BRANCH  12  16
ATOM     16  CA  SER A   2       8.102  25.385 -19.633  0.00  0.00    +0.178 C 
BRANCH  16  18
ATOM     17  C   ILE A   1       9.788  24.528 -21.135  0.00  0.00    +0.238 C 
ATOM     18  N   SER A   2       8.572  24.471 -20.634  0.00  0.00    -0.295 N 
ATOM     19  H   SER A   2       7.925  23.733 -20.978  0.00  0.00    +0.150 HD
ATOM     20  O   ILE A   1      10.669  25.291 -20.720  0.00  0.00    -0.274 OA
BRANCH  17  21
ATOM     21  CA  ILE A   1      10.072  23.527 -22.278  0.00  0.00    +0.145 C 
BRANCH  21  22
ATOM     22  N   ILE A   1      10.806  24.239 -23.325  0.00  0.00    -0.238 NA
ATOM     23  H   ILE A   1      11.827  24.082 -23.446  0.00  0.00    +0.142 HD
ENDBRANCH  21  22
BRANCH  21  24
ATOM     24  CB  ILE A   1      10.887  22.324 -21.775  0.00  0.00    +0.025 C 
ATOM     25  CG2 ILE A   1      10.143  21.567 -20.665  0.00  0.00    +0.002 C 
BRANCH  24  26
ATOM     26  CG1 ILE A   1      11.111  21.332 -22.947  0.00  0.00    +0.002 C 
ATOM     27  CD1 ILE A   1      12.090  20.229 -22.598  0.00  0.00    +0.000 C 
ENDBRANCH  24  26
ENDBRANCH  21  24
ENDBRANCH  17  21
ENDBRANCH  16  18
BRANCH  16  28
ATOM     28  CB  SER A   2       6.600  25.221 -19.571  0.00  0.00    +0.166 C 
BRANCH  28  29
ATOM     29  OG  SER A   2       6.236  25.625 -18.278  0.00  0.00    -0.380 OA
ATOM     30  H   SER A   2       5.255  25.541 -18.171  0.00  0.00    +0.211 HD
ENDBRANCH  28  29
ENDBRANCH  16  28
ENDBRANCH  12  16
ENDBRANCH  11  13
BRANCH  11  31
ATOM     31  CB  ASP A   3       9.298  27.687 -15.506  0.00  0.00    +0.143 C 
BRANCH  31  32
ATOM     32  CG  ASP A   3      10.345  28.658 -16.070  0.00  0.00    +0.367 C 
ATOM     33  OD2 ASP A   3      10.101  29.875 -15.895  0.00  0.00    -0.246 OA
ATOM     34  OD1 ASP A   3      11.383  28.206 -16.653  0.00  0.00    -0.246 OA
ENDBRANCH  31  32
ENDBRANCH  11  31
ENDBRANCH   7  11
ENDBRANCH   6   9
BRANCH   6  35
ATOM     35  CB  GLU A   4       5.112  24.011 -15.513  0.00  0.00    +0.041 C 
BRANCH  35  36
ATOM     36  CG  GLU A   4       4.188  23.158 -14.721  0.00  0.00    +0.116 C 
BRANCH  36  37
ATOM     37  CD  GLU A   4       2.788  23.043 -15.337  0.00  0.00    +0.365 C 
ATOM     38  OE2 GLU A   4       1.988  22.235 -14.805  0.00  0.00    -0.246 OA
ATOM     39  OE1 GLU A   4       2.474  23.746 -16.330  0.00  0.00    -0.246 OA
ENDBRANCH  36  37
ENDBRANCH  35  36
ENDBRANCH   6  35
ENDBRANCH   2   6
ENDBRANCH   1   4
BRANCH   1  40
ATOM     40  C   TYR A   5       9.922  21.099 -15.583  0.00  0.00    +0.241 C 
ATOM     41  O   TYR A   5      10.443  20.117 -15.051  0.00  0.00    -0.273 OA
ATOM     42  N   ILE A   6      10.621  22.183 -15.906  0.00  0.00    -0.297 N 
ATOM     43  H   ILE A   6      10.124  22.971 -16.368  0.00  0.00    +0.150 HD
BRANCH  42  44
ATOM     44  CA  ILE A   6      12.033  22.323 -15.649  0.00  0.00    +0.149 C 
BRANCH  44  45
ATOM     45  C   ILE A   6      12.342  22.498 -14.187  0.00  0.00    +0.241 C 
ATOM     46  N   THR A   7      11.519  23.284 -13.482  0.00  0.00    -0.295 N 
ATOM     47  H   THR A   7      10.636  23.639 -13.902  0.00  0.00    +0.150 HD
ATOM     48  O   ILE A   6      13.251  21.866 -13.657  0.00  0.00    -0.273 OA
BRANCH  46  49
ATOM     49  CA  THR A   7      11.883  23.634 -12.114  0.00  0.00    +0.176 C 
BRANCH  49  50
ATOM     50  C   THR A   7      11.967  22.370 -11.203  0.00  0.00    +0.250 C 
ATOM     51  O   THR A   7      12.959  22.198 -10.460  0.00  0.00    -0.273 OA
ATOM     52  N   PRO A   8      10.972  21.486 -11.265  0.00  0.00    -0.249 N 
ATOM     53  CA  PRO A   8      11.032  20.339 -10.356  0.00  0.00    +0.160 C 
ATOM     54  CB  PRO A   8       9.688  19.646 -10.492  0.00  0.00    +0.057 C 
ATOM     55  CG  PRO A   8       8.940  20.319 -11.616  0.00  0.00    -0.008 C 
ATOM     56  CD  PRO A   8       9.696  21.560 -12.012  0.00  0.00    +0.063 C 
BRANCH  53  57
ATOM     57  C   PRO A   8      12.131  19.398 -10.751  0.00  0.00    +0.242 C 
ATOM     58  O   PRO A   8      12.771  18.796  -9.855  0.00  0.00    -0.273 OA
ATOM     59  N   MET A   9      12.419  19.302 -12.048  0.00  0.00    -0.297 N 
ATOM     60  H   MET A   9      11.867  19.838 -12.747  0.00  0.00    +0.150 HD
BRANCH  59  61
ATOM     61  CA  MET A   9      13.549  18.413 -12.496  0.00  0.00    +0.149 C 
BRANCH  61  62
ATOM     62  C   MET A   9      14.859  18.901 -11.962  0.00  0.00    +0.241 C 
ATOM     63  O   MET A   9      15.607  18.144 -11.387  0.00  0.00    -0.273 OA
ATOM     64  N   PHE A  10      15.110  20.202 -12.125  0.00  0.00    -0.298 N 
ATOM     65  H   PHE A  10      14.430  20.802 -12.634  0.00  0.00    +0.150 HD
BRANCH  64  66
ATOM     66  CA  PHE A  10      16.353  20.790 -11.583  0.00  0.00    +0.141 C 
BRANCH  66  67
ATOM     67  C   PHE A  10      16.487  20.660 -10.056  0.00  0.00    +0.227 C 
ATOM     68  O   PHE A  10      17.591  20.443  -9.586  0.00  0.00    -0.286 OA
ENDBRANCH  66  67
BRANCH  66  69
ATOM     69  CB  PHE A  10      16.518  22.262 -12.049  0.00  0.00    +0.054 C 
BRANCH  69  70
ATOM     70  CG  PHE A  10      16.940  22.400 -13.526  0.00  0.00    -0.020 A 
ATOM     71  CD2 PHE A  10      17.046  23.622 -14.133  0.00  0.00    -0.004 A 
ATOM     72  CE2 PHE A  10      17.447  23.706 -15.507  0.00  0.00    -0.000 A 
ATOM     73  CZ  PHE A  10      17.754  22.564 -16.249  0.00  0.00    -0.000 A 
ATOM     74  CE1 PHE A  10      17.629  21.390 -15.686  0.00  0.00    -0.000 A 
ATOM     75  CD1 PHE A  10      17.244  21.288 -14.304  0.00  0.00    -0.004 A 
ENDBRANCH  69  70
ENDBRANCH  66  69
ENDBRANCH  64  66
ENDBRANCH  61  62
BRANCH  61  76
ATOM     76  CB  MET A   9      13.610  18.237 -13.959  0.00  0.00    +0.041 C 
BRANCH  76  77
ATOM     77  CG  MET A   9      12.269  17.553 -14.465  0.00  0.00    +0.060 C 
BRANCH  77  78
ATOM     78  SD  MET A   9      11.775  15.984 -13.541  0.00  0.00    -0.139 S 
ATOM     79  CE  MET A   9      13.144  15.040 -14.086  0.00  0.00    +0.069 C 
ENDBRANCH  77  78
ENDBRANCH  76  77
ENDBRANCH  61  76
ENDBRANCH  59  61
ENDBRANCH  53  57
ENDBRANCH  49  50
BRANCH  49  80
ATOM     80  CB  THR A   7      10.907  24.709 -11.563  0.00  0.00    +0.137 C 
ATOM     81  CG2 THR A   7      11.156  24.968 -10.085  0.00  0.00    +0.034 C 
BRANCH  80  82
ATOM     82  OG1 THR A   7      11.103  25.955 -12.288  0.00  0.00    -0.382 OA
ATOM     83  HG1 THR A   7      10.481  26.641 -11.937  0.00  0.00    +0.210 HD
ENDBRANCH  80  82
ENDBRANCH  49  80
ENDBRANCH  46  49
ENDBRANCH  44  45
BRANCH  44  84
ATOM     84  CB  ILE A   6      12.671  23.613 -16.358  0.00  0.00    +0.027 C 
ATOM     85  CG2 ILE A   6      14.115  23.897 -15.864  0.00  0.00    +0.002 C 
BRANCH  84  86
ATOM     86  CG1 ILE A   6      12.818  23.395 -17.810  0.00  0.00    +0.002 C 
ATOM     87  CD1 ILE A   6      12.455  22.193 -18.182  0.00  0.00    +0.000 C 
ENDBRANCH  84  86
ENDBRANCH  44  84
ENDBRANCH  42  44
ENDBRANCH   1  40
BRANCH   1  88
ATOM     88  CB  TYR A   5       8.278  20.412 -17.166  0.00  0.00    +0.055 C 
BRANCH  88  89
ATOM     89  CG  TYR A   5       6.867  20.389 -17.464  0.00  0.00    -0.020 A 
ATOM     90  CD2 TYR A   5       5.956  19.676 -16.653  0.00  0.00    -0.001 A 
ATOM     91  CE2 TYR A   5       4.609  19.774 -16.913  0.00  0.00    +0.036 A 
ATOM     92  CZ  TYR A   5       4.243  20.574 -18.004  0.00  0.00    +0.134 A 
ATOM     93  CE1 TYR A   5       5.125  21.257 -18.768  0.00  0.00    +0.036 A 
ATOM     94  CD1 TYR A   5       6.410  21.170 -18.495  0.00  0.00    -0.001 A 
BRANCH  92  95
ATOM     95  OH  TYR A   5       3.004  20.754 -18.441  0.00  0.00    -0.506 OA
ATOM     96  HH  TYR A   5       3.016  21.362 -19.222  0.00  0.00    +0.292 HD
ENDBRANCH  92  95
ENDBRANCH  88  89
ENDBRANCH   1  88
TORSDOF 40
REMARK  Name = ../refined-set-2016/4oiv/4oiv_pocket.pdb
REMARK  245 active torsions:
REMARK  status: ('A' for Active; 'I' for Inactive)
REMARK    1  A    between atoms: _1  and  _3
REMARK    2  A    between atoms: _3  and  _4
REMARK    3  A    between atoms: _3  and  _6
REMARK    4  A    between atoms: _6  and  _7
REMARK    5  A    between atoms: _12  and  _14
REMARK    6  A    between atoms: _14  and  _15
REMARK    7  A    between atoms: _14  and  _17
REMARK    8  A    between atoms: _17  and  _18
REMARK    9  A    between atoms: _24  and  _26
REMARK   10  A    between atoms: _26  and  _27
REMARK   11  A    between atoms: _26  and  _29
REMARK   12  A    between atoms: _29  and  _30
REMARK   13  A    between atoms: _33  and  _35
REMARK   14  A    between atoms: _35  and  _36
REMARK   15  A    between atoms: _35  and  _38
REMARK   16  A    between atoms: _38  and  _39
REMARK   17  A    between atoms: _42  and  _44
REMARK   18  A    between atoms: _44  and  _45
REMARK   19  A    between atoms: _44  and  _47
REMARK   20  A    between atoms: _47  and  _48
REMARK   21  A    between atoms: _51  and  _53
REMARK   22  A    between atoms: _53  and  _54
REMARK   23  A    between atoms: _53  and  _56
REMARK   24  A    between atoms: _56  and  _57
REMARK   25  A    between atoms: _60  and  _62
REMARK   26  A    between atoms: _62  and  _63
REMARK   27  A    between atoms: _62  and  _65
REMARK   28  A    between atoms: _65  and  _66
REMARK   29  A    between atoms: _66  and  _67
REMARK   30  A    between atoms: _70  and  _72
REMARK   31  A    between atoms: _72  and  _73
REMARK   32  A    between atoms: _72  and  _75
REMARK   33  A    between atoms: _75  and  _76
REMARK   34  A    between atoms: _76  and  _77
REMARK   35  A    between atoms: _79  and  _81
REMARK   36  A    between atoms: _81  and  _82
REMARK   37  A    between atoms: _85  and  _87
REMARK   38  A    between atoms: _87  and  _88
REMARK   39  A    between atoms: _87  and  _90
REMARK   40  A    between atoms: _90  and  _91
REMARK   41  A    between atoms: _94  and  _96
REMARK   42  A    between atoms: _96  and  _97
REMARK   43  A    between atoms: _96  and  _99
REMARK   44  A    between atoms: _99  and  _100
REMARK   45  A    between atoms: _105  and  _107
REMARK   46  A    between atoms: _107  and  _108
REMARK   47  A    between atoms: _107  and  _110
REMARK   48  A    between atoms: _110  and  _111
REMARK   49  A    between atoms: _116  and  _118
REMARK   50  A    between atoms: _118  and  _119
REMARK   51  A    between atoms: _118  and  _121
REMARK   52  A    between atoms: _124  and  _126
REMARK   53  A    between atoms: _126  and  _127
REMARK   54  A    between atoms: _126  and  _129
REMARK   55  A    between atoms: _129  and  _130
REMARK   56  A    between atoms: _130  and  _131
REMARK   57  A    between atoms: _136  and  _138
REMARK   58  A    between atoms: _138  and  _139
REMARK   59  A    between atoms: _138  and  _141
REMARK   60  A    between atoms: _141  and  _142
REMARK   61  A    between atoms: _145  and  _147
REMARK   62  A    between atoms: _147  and  _148
REMARK   63  A    between atoms: _151  and  _153
REMARK   64  A    between atoms: _153  and  _154
REMARK   65  A    between atoms: _153  and  _156
REMARK   66  A    between atoms: _159  and  _161
REMARK   67  A    between atoms: _161  and  _162
REMARK   68  A    between atoms: _161  and  _164
REMARK   69  A    between atoms: _164  and  _165
REMARK   70  A    between atoms: _165  and  _166
REMARK   71  A    between atoms: _169  and  _171
REMARK   72  A    between atoms: _171  and  _172
REMARK   73  A    between atoms: _175  and  _177
REMARK   74  A    between atoms: _177  and  _178
REMARK   75  A    between atoms: _177  and  _180
REMARK   76  A    between atoms: _180  and  _181
REMARK   77  A    between atoms: _181  and  _182
REMARK   78  A    between atoms: _184  and  _186
REMARK   79  A    between atoms: _186  and  _187
REMARK   80  A    between atoms: _186  and  _189
REMARK   81  A    between atoms: _189  and  _190
REMARK   82  A    between atoms: _196  and  _198
REMARK   83  A    between atoms: _198  and  _199
REMARK   84  A    between atoms: _198  and  _201
REMARK   85  A    between atoms: _201  and  _202
REMARK   86  A    between atoms: _205  and  _207
REMARK   87  A    between atoms: _207  and  _208
REMARK   88  A    between atoms: _207  and  _210
REMARK   89  A    between atoms: _210  and  _211
REMARK   90  A    between atoms: _211  and  _212
REMARK   91  A    between atoms: _212  and  _213
REMARK   92  A    between atoms: _222  and  _224
REMARK   93  A    between atoms: _224  and  _225
REMARK   94  A    between atoms: _224  and  _227
REMARK   95  A    between atoms: _227  and  _228
REMARK   96  A    between atoms: _230  and  _232
REMARK   97  A    between atoms: _232  and  _233
REMARK   98  A    between atoms: _236  and  _238
REMARK   99  A    between atoms: _238  and  _239
REMARK  100  A    between atoms: _238  and  _241
REMARK  101  A    between atoms: _241  and  _242
REMARK  102  A    between atoms: _245  and  _247
REMARK  103  A    between atoms: _247  and  _248
REMARK  104  A    between atoms: _247  and  _250
REMARK  105  A    between atoms: _250  and  _251
REMARK  106  A    between atoms: _257  and  _259
REMARK  107  A    between atoms: _259  and  _260
REMARK  108  A    between atoms: _259  and  _262
REMARK  109  A    between atoms: _262  and  _263
REMARK  110  A    between atoms: _266  and  _268
REMARK  111  A    between atoms: _268  and  _269
REMARK  112  A    between atoms: _268  and  _271
REMARK  113  A    between atoms: _271  and  _272
REMARK  114  A    between atoms: _272  and  _273
REMARK  115  A    between atoms: _273  and  _274
REMARK  116  A    between atoms: _283  and  _285
REMARK  117  A    between atoms: _285  and  _286
REMARK  118  A    between atoms: _285  and  _288
REMARK  119  A    between atoms: _288  and  _289
REMARK  120  A    between atoms: _292  and  _294
REMARK  121  A    between atoms: _294  and  _295
REMARK  122  A    between atoms: _294  and  _297
REMARK  123  A    between atoms: _297  and  _298
REMARK  124  A    between atoms: _298  and  _299
REMARK  125  A    between atoms: _299  and  _300
REMARK  126  A    between atoms: _309  and  _311
REMARK  127  A    between atoms: _311  and  _312
REMARK  128  A    between atoms: _311  and  _314
REMARK  129  A    between atoms: _314  and  _315
REMARK  130  A    between atoms: _317  and  _319
REMARK  131  A    between atoms: _319  and  _320
REMARK  132  A    between atoms: _319  and  _322
REMARK  133  A    between atoms: _322  and  _323
REMARK  134  A    between atoms: _326  and  _328
REMARK  135  A    between atoms: _328  and  _329
REMARK  136  A    between atoms: _328  and  _331
REMARK  137  A    between atoms: _331  and  _332
REMARK  138  A    between atoms: _334  and  _336
REMARK  139  A    between atoms: _336  and  _337
REMARK  140  A    between atoms: _336  and  _339
REMARK  141  A    between atoms: _339  and  _340
REMARK  142  A    between atoms: _343  and  _345
REMARK  143  A    between atoms: _345  and  _346
REMARK  144  A    between atoms: _345  and  _348
REMARK  145  A    between atoms: _348  and  _349
REMARK  146  A    between atoms: _349  and  _350
REMARK  147  A    between atoms: _353  and  _355
REMARK  148  A    between atoms: _355  and  _356
REMARK  149  A    between atoms: _355  and  _358
REMARK  150  A    between atoms: _358  and  _359
REMARK  151  A    between atoms: _364  and  _365
REMARK  152  A    between atoms: _367  and  _369
REMARK  153  A    between atoms: _369  and  _370
REMARK  154  A    between atoms: _369  and  _372
REMARK  155  A    between atoms: _372  and  _373
REMARK  156  A    between atoms: _376  and  _378
REMARK  157  A    between atoms: _378  and  _379
REMARK  158  A    between atoms: _378  and  _381
REMARK  159  A    between atoms: _381  and  _382
REMARK  160  A    between atoms: _386  and  _387
REMARK  161  A    between atoms: _392  and  _394
REMARK  162  A    between atoms: _394  and  _395
REMARK  163  A    between atoms: _394  and  _397
REMARK  164  A    between atoms: _397  and  _398
REMARK  165  A    between atoms: _398  and  _399
REMARK  166  A    between atoms: _401  and  _403
REMARK  167  A    between atoms: _403  and  _404
REMARK  168  A    between atoms: _403  and  _406
REMARK  169  A    between atoms: _406  and  _407
REMARK  170  A    between atoms: _413  and  _415
REMARK  171  A    between atoms: _415  and  _416
REMARK  172  A    between atoms: _415  and  _418
REMARK  173  A    between atoms: _418  and  _419
REMARK  174  A    between atoms: _424  and  _425
REMARK  175  A    between atoms: _427  and  _429
REMARK  176  A    between atoms: _429  and  _430
REMARK  177  A    between atoms: _429  and  _432
REMARK  178  A    between atoms: _432  and  _433
REMARK  179  A    between atoms: _438  and  _440
REMARK  180  A    between atoms: _440  and  _441
REMARK  181  A    between atoms: _440  and  _443
REMARK  182  A    between atoms: _443  and  _444
REMARK  183  A    between atoms: _449  and  _451
REMARK  184  A    between atoms: _451  and  _452
REMARK  185  A    between atoms: _451  and  _454
REMARK  186  A    between atoms: _454  and  _455
REMARK  187  A    between atoms: _460  and  _462
REMARK  188  A    between atoms: _462  and  _463
REMARK  189  A    between atoms: _462  and  _465
REMARK  190  A    between atoms: _465  and  _466
REMARK  191  A    between atoms: _471  and  _473
REMARK  192  A    between atoms: _473  and  _474
REMARK  193  A    between atoms: _477  and  _479
REMARK  194  A    between atoms: _479  and  _480
REMARK  195  A    between atoms: _479  and  _482
REMARK  196  A    between atoms: _482  and  _483
REMARK  197  A    between atoms: _483  and  _484
REMARK  198  A    between atoms: _487  and  _489
REMARK  199  A    between atoms: _489  and  _490
REMARK  200  A    between atoms: _489  and  _492
REMARK  201  A    between atoms: _492  and  _493
REMARK  202  A    between atoms: _493  and  _494
REMARK  203  A    between atoms: _496  and  _498
REMARK  204  A    between atoms: _498  and  _499
REMARK  205  A    between atoms: _498  and  _501
REMARK  206  A    between atoms: _501  and  _502
REMARK  207  A    between atoms: _505  and  _507
REMARK  208  A    between atoms: _507  and  _508
REMARK  209  A    between atoms: _507  and  _510
REMARK  210  A    between atoms: _510  and  _511
REMARK  211  A    between atoms: _511  and  _512
REMARK  212  A    between atoms: _514  and  _516
REMARK  213  A    between atoms: _516  and  _517
REMARK  214  A    between atoms: _516  and  _519
REMARK  215  A    between atoms: _519  and  _520
REMARK  216  A    between atoms: _522  and  _524
REMARK  217  A    between atoms: _524  and  _525
REMARK  218  A    between atoms: _524  and  _527
REMARK  219  A    between atoms: _527  and  _528
REMARK  220  A    between atoms: _538  and  _540
REMARK  221  A    between atoms: _540  and  _541
REMARK  222  A    between atoms: _540  and  _543
REMARK  223  A    between atoms: _543  and  _544
REMARK  224  A    between atoms: _544  and  _545
REMARK  225  A    between atoms: _545  and  _546
REMARK  226  A    between atoms: _555  and  _557
REMARK  227  A    between atoms: _557  and  _558
REMARK  228  A    between atoms: _557  and  _560
REMARK  229  A    between atoms: _563  and  _565
REMARK  230  A    between atoms: _565  and  _566
REMARK  231  A    between atoms: _565  and  _568
REMARK  232  A    between atoms: _568  and  _569
REMARK  233  A    between atoms: _569  and  _570
REMARK  234  A    between atoms: _573  and  _575
REMARK  235  A    between atoms: _575  and  _576
REMARK  236  A    between atoms: _575  and  _578
REMARK  237  A    between atoms: _578  and  _579
REMARK  238  A    between atoms: _582  and  _584
REMARK  239  A    between atoms: _584  and  _585
REMARK  240  A    between atoms: _584  and  _587
REMARK  241  A    between atoms: _587  and  _588
REMARK  242  A    between atoms: _591  and  _593
REMARK  243  A    between atoms: _593  and  _594
REMARK  244  A    between atoms: _593  and  _596
REMARK  245  A    between atoms: _596  and  _597
REMARK                            x       y       z     vdW  Elec       q    Type
REMARK                         _______ _______ _______ _____ _____    ______ ____
ROOT
ATOM      1  CG  TYR A   1      18.462  17.097 -12.317  0.00  0.00    -0.020 A 
ATOM      2  CD2 TYR A   1      17.775  15.870 -12.276  0.00  0.00    -0.001 A 
ATOM      3  CE2 TYR A   1      17.012  15.449 -13.361  0.00  0.00    +0.036 A 
ATOM      4  CZ  TYR A   1      16.966  16.267 -14.544  0.00  0.00    +0.134 A 
ATOM      5  CE1 TYR A   1      17.589  17.456 -14.576  0.00  0.00    +0.036 A 
ATOM      6  CD1 TYR A   1      18.373  17.854 -13.473  0.00  0.00    -0.001 A 
ENDROOT
BRANCH   4   7
ATOM      7  OH  TYR A   1      16.223  15.886 -15.663  0.00  0.00    -0.506 OA
ATOM      8  HH  TYR A   1      16.558  15.017 -16.000  0.00  0.00    +0.292 HD
ENDBRANCH   4   7
BRANCH   1   9
ATOM      9  CB  TYR A   1      19.291  17.587 -11.118  0.00  0.00    +0.051 C 
BRANCH   9  10
ATOM     10  CA  TYR A   1      18.881  16.864  -9.803  0.00  0.00    +0.137 C 
BRANCH  10  11
ATOM     11  N   TYR A   1      17.501  17.160  -9.433  0.00  0.00    -0.239 NA
ATOM     12  H   TYR A   1      16.955  17.843  -9.996  0.00  0.00    +0.142 HD
ENDBRANCH  10  11
BRANCH  10  13
ATOM     13  C   TYR A   1      19.800  17.350  -8.701  0.00  0.00    +0.224 C 
ATOM     14  O   TYR A   1      20.782  16.663  -8.332  0.00  0.00    -0.287 OA
ENDBRANCH  10  13
ENDBRANCH   9  10
ENDBRANCH   1   9
TORSDOF 5
REMARK  Name = ../refined-set-2016/4oiv/4oiv_pocket.pdb
REMARK  245 active torsions:
REMARK  status: ('A' for Active; 'I' for Inactive)
REMARK    1  A    between atoms: _1  and  _3
REMARK    2  A    between atoms: _3  and  _4
REMARK    3  A    between atoms: _3  and  _6
REMARK    4  A    between atoms: _6  and  _7
REMARK    5  A    between atoms: _12  and  _14
REMARK    6  A    between atoms: _14  and  _15
REMARK    7  A    between atoms: _14  and  _17
REMARK    8  A    between atoms: _17  and  _18
REMARK    9  A    between atoms: _24  and  _26
REMARK   10  A    between atoms: _26  and  _27
REMARK   11  A    between atoms: _26  and  _29
REMARK   12  A    between atoms: _29  and  _30
REMARK   13  A    between atoms: _33  and  _35
REMARK   14  A    between atoms: _35  and  _36
REMARK   15  A    between atoms: _35  and  _38
REMARK   16  A    between atoms: _38  and  _39
REMARK   17  A    between atoms: _42  and  _44
REMARK   18  A    between atoms: _44  and  _45
REMARK   19  A    between atoms: _44  and  _47
REMARK   20  A    between atoms: _47  and  _48
REMARK   21  A    between atoms: _51  and  _53
REMARK   22  A    between atoms: _53  and  _54
REMARK   23  A    between atoms: _53  and  _56
REMARK   24  A    between atoms: _56  and  _57
REMARK   25  A    between atoms: _60  and  _62
REMARK   26  A    between atoms: _62  and  _63
REMARK   27  A    between atoms: _62  and  _65
REMARK   28  A    between atoms: _65  and  _66
REMARK   29  A    between atoms: _66  and  _67
REMARK   30  A    between atoms: _70  and  _72
REMARK   31  A    between atoms: _72  and  _73
REMARK   32  A    between atoms: _72  and  _75
REMARK   33  A    between atoms: _75  and  _76
REMARK   34  A    between atoms: _76  and  _77
REMARK   35  A    between atoms: _79  and  _81
REMARK   36  A    between atoms: _81  and  _82
REMARK   37  A    between atoms: _85  and  _87
REMARK   38  A    between atoms: _87  and  _88
REMARK   39  A    between atoms: _87  and  _90
REMARK   40  A    between atoms: _90  and  _91
REMARK   41  A    between atoms: _94  and  _96
REMARK   42  A    between atoms: _96  and  _97
REMARK   43  A    between atoms: _96  and  _99
REMARK   44  A    between atoms: _99  and  _100
REMARK   45  A    between atoms: _105  and  _107
REMARK   46  A    between atoms: _107  and  _108
REMARK   47  A    between atoms: _107  and  _110
REMARK   48  A    between atoms: _110  and  _111
REMARK   49  A    between atoms: _116  and  _118
REMARK   50  A    between atoms: _118  and  _119
REMARK   51  A    between atoms: _118  and  _121
REMARK   52  A    between atoms: _124  and  _126
REMARK   53  A    between atoms: _126  and  _127
REMARK   54  A    between atoms: _126  and  _129
REMARK   55  A    between atoms: _129  and  _130
REMARK   56  A    between atoms: _130  and  _131
REMARK   57  A    between atoms: _136  and  _138
REMARK   58  A    between atoms: _138  and  _139
REMARK   59  A    between atoms: _138  and  _141
REMARK   60  A    between atoms: _141  and  _142
REMARK   61  A    between atoms: _145  and  _147
REMARK   62  A    between atoms: _147  and  _148
REMARK   63  A    between atoms: _151  and  _153
REMARK   64  A    between atoms: _153  and  _154
REMARK   65  A    between atoms: _153  and  _156
REMARK   66  A    between atoms: _159  and  _161
REMARK   67  A    between atoms: _161  and  _162
REMARK   68  A    between atoms: _161  and  _164
REMARK   69  A    between atoms: _164  and  _165
REMARK   70  A    between atoms: _165  and  _166
REMARK   71  A    between atoms: _169  and  _171
REMARK   72  A    between atoms: _171  and  _172
REMARK   73  A    between atoms: _175  and  _177
REMARK   74  A    between atoms: _177  and  _178
REMARK   75  A    between atoms: _177  and  _180
REMARK   76  A    between atoms: _180  and  _181
REMARK   77  A    between atoms: _181  and  _182
REMARK   78  A    between atoms: _184  and  _186
REMARK   79  A    between atoms: _186  and  _187
REMARK   80  A    between atoms: _186  and  _189
REMARK   81  A    between atoms: _189  and  _190
REMARK   82  A    between atoms: _196  and  _198
REMARK   83  A    between atoms: _198  and  _199
REMARK   84  A    between atoms: _198  and  _201
REMARK   85  A    between atoms: _201  and  _202
REMARK   86  A    between atoms: _205  and  _207
REMARK   87  A    between atoms: _207  and  _208
REMARK   88  A    between atoms: _207  and  _210
REMARK   89  A    between atoms: _210  and  _211
REMARK   90  A    between atoms: _211  and  _212
REMARK   91  A    between atoms: _212  and  _213
REMARK   92  A    between atoms: _222  and  _224
REMARK   93  A    between atoms: _224  and  _225
REMARK   94  A    between atoms: _224  and  _227
REMARK   95  A    between atoms: _227  and  _228
REMARK   96  A    between atoms: _230  and  _232
REMARK   97  A    between atoms: _232  and  _233
REMARK   98  A    between atoms: _236  and  _238
REMARK   99  A    between atoms: _238  and  _239
REMARK  100  A    between atoms: _238  and  _241
REMARK  101  A    between atoms: _241  and  _242
REMARK  102  A    between atoms: _245  and  _247
REMARK  103  A    between atoms: _247  and  _248
REMARK  104  A    between atoms: _247  and  _250
REMARK  105  A    between atoms: _250  and  _251
REMARK  106  A    between atoms: _257  and  _259
REMARK  107  A    between atoms: _259  and  _260
REMARK  108  A    between atoms: _259  and  _262
REMARK  109  A    between atoms: _262  and  _263
REMARK  110  A    between atoms: _266  and  _268
REMARK  111  A    between atoms: _268  and  _269
REMARK  112  A    between atoms: _268  and  _271
REMARK  113  A    between atoms: _271  and  _272
REMARK  114  A    between atoms: _272  and  _273
REMARK  115  A    between atoms: _273  and  _274
REMARK  116  A    between atoms: _283  and  _285
REMARK  117  A    between atoms: _285  and  _286
REMARK  118  A    between atoms: _285  and  _288
REMARK  119  A    between atoms: _288  and  _289
REMARK  120  A    between atoms: _292  and  _294
REMARK  121  A    between atoms: _294  and  _295
REMARK  122  A    between atoms: _294  and  _297
REMARK  123  A    between atoms: _297  and  _298
REMARK  124  A    between atoms: _298  and  _299
REMARK  125  A    between atoms: _299  and  _300
REMARK  126  A    between atoms: _309  and  _311
REMARK  127  A    between atoms: _311  and  _312
REMARK  128  A    between atoms: _311  and  _314
REMARK  129  A    between atoms: _314  and  _315
REMARK  130  A    between atoms: _317  and  _319
REMARK  131  A    between atoms: _319  and  _320
REMARK  132  A    between atoms: _319  and  _322
REMARK  133  A    between atoms: _322  and  _323
REMARK  134  A    between atoms: _326  and  _328
REMARK  135  A    between atoms: _328  and  _329
REMARK  136  A    between atoms: _328  and  _331
REMARK  137  A    between atoms: _331  and  _332
REMARK  138  A    between atoms: _334  and  _336
REMARK  139  A    between atoms: _336  and  _337
REMARK  140  A    between atoms: _336  and  _339
REMARK  141  A    between atoms: _339  and  _340
REMARK  142  A    between atoms: _343  and  _345
REMARK  143  A    between atoms: _345  and  _346
REMARK  144  A    between atoms: _345  and  _348
REMARK  145  A    between atoms: _348  and  _349
REMARK  146  A    between atoms: _349  and  _350
REMARK  147  A    between atoms: _353  and  _355
REMARK  148  A    between atoms: _355  and  _356
REMARK  149  A    between atoms: _355  and  _358
REMARK  150  A    between atoms: _358  and  _359
REMARK  151  A    between atoms: _364  and  _365
REMARK  152  A    between atoms: _367  and  _369
REMARK  153  A    between atoms: _369  and  _370
REMARK  154  A    between atoms: _369  and  _372
REMARK  155  A    between atoms: _372  and  _373
REMARK  156  A    between atoms: _376  and  _378
REMARK  157  A    between atoms: _378  and  _379
REMARK  158  A    between atoms: _378  and  _381
REMARK  159  A    between atoms: _381  and  _382
REMARK  160  A    between atoms: _386  and  _387
REMARK  161  A    between atoms: _392  and  _394
REMARK  162  A    between atoms: _394  and  _395
REMARK  163  A    between atoms: _394  and  _397
REMARK  164  A    between atoms: _397  and  _398
REMARK  165  A    between atoms: _398  and  _399
REMARK  166  A    between atoms: _401  and  _403
REMARK  167  A    between atoms: _403  and  _404
REMARK  168  A    between atoms: _403  and  _406
REMARK  169  A    between atoms: _406  and  _407
REMARK  170  A    between atoms: _413  and  _415
REMARK  171  A    between atoms: _415  and  _416
REMARK  172  A    between atoms: _415  and  _418
REMARK  173  A    between atoms: _418  and  _419
REMARK  174  A    between atoms: _424  and  _425
REMARK  175  A    between atoms: _427  and  _429
REMARK  176  A    between atoms: _429  and  _430
REMARK  177  A    between atoms: _429  and  _432
REMARK  178  A    between atoms: _432  and  _433
REMARK  179  A    between atoms: _438  and  _440
REMARK  180  A    between atoms: _440  and  _441
REMARK  181  A    between atoms: _440  and  _443
REMARK  182  A    between atoms: _443  and  _444
REMARK  183  A    between atoms: _449  and  _451
REMARK  184  A    between atoms: _451  and  _452
REMARK  185  A    between atoms: _451  and  _454
REMARK  186  A    between atoms: _454  and  _455
REMARK  187  A    between atoms: _460  and  _462
REMARK  188  A    between atoms: _462  and  _463
REMARK  189  A    between atoms: _462  and  _465
REMARK  190  A    between atoms: _465  and  _466
REMARK  191  A    between atoms: _471  and  _473
REMARK  192  A    between atoms: _473  and  _474
REMARK  193  A    between atoms: _477  and  _479
REMARK  194  A    between atoms: _479  and  _480
REMARK  195  A    between atoms: _479  and  _482
REMARK  196  A    between atoms: _482  and  _483
REMARK  197  A    between atoms: _483  and  _484
REMARK  198  A    between atoms: _487  and  _489
REMARK  199  A    between atoms: _489  and  _490
REMARK  200  A    between atoms: _489  and  _492
REMARK  201  A    between atoms: _492  and  _493
REMARK  202  A    between atoms: _493  and  _494
REMARK  203  A    between atoms: _496  and  _498
REMARK  204  A    between atoms: _498  and  _499
REMARK  205  A    between atoms: _498  and  _501
REMARK  206  A    between atoms: _501  and  _502
REMARK  207  A    between atoms: _505  and  _507
REMARK  208  A    between atoms: _507  and  _508
REMARK  209  A    between atoms: _507  and  _510
REMARK  210  A    between atoms: _510  and  _511
REMARK  211  A    between atoms: _511  and  _512
REMARK  212  A    between atoms: _514  and  _516
REMARK  213  A    between atoms: _516  and  _517
REMARK  214  A    between atoms: _516  and  _519
REMARK  215  A    between atoms: _519  and  _520
REMARK  216  A    between atoms: _522  and  _524
REMARK  217  A    between atoms: _524  and  _525
REMARK  218  A    between atoms: _524  and  _527
REMARK  219  A    between atoms: _527  and  _528
REMARK  220  A    between atoms: _538  and  _540
REMARK  221  A    between atoms: _540  and  _541
REMARK  222  A    between atoms: _540  and  _543
REMARK  223  A    between atoms: _543  and  _544
REMARK  224  A    between atoms: _544  and  _545
REMARK  225  A    between atoms: _545  and  _546
REMARK  226  A    between atoms: _555  and  _557
REMARK  227  A    between atoms: _557  and  _558
REMARK  228  A    between atoms: _557  and  _560
REMARK  229  A    between atoms: _563  and  _565
REMARK  230  A    between atoms: _565  and  _566
REMARK  231  A    between atoms: _565  and  _568
REMARK  232  A    between atoms: _568  and  _569
REMARK  233  A    between atoms: _569  and  _570
REMARK  234  A    between atoms: _573  and  _575
REMARK  235  A    between atoms: _575  and  _576
REMARK  236  A    between atoms: _575  and  _578
REMARK  237  A    between atoms: _578  and  _579
REMARK  238  A    between atoms: _582  and  _584
REMARK  239  A    between atoms: _584  and  _585
REMARK  240  A    between atoms: _584  and  _587
REMARK  241  A    between atoms: _587  and  _588
REMARK  242  A    between atoms: _591  and  _593
REMARK  243  A    between atoms: _593  and  _594
REMARK  244  A    between atoms: _593  and  _596
REMARK  245  A    between atoms: _596  and  _597
REMARK                            x       y       z     vdW  Elec       q    Type
REMARK                         _______ _______ _______ _____ _____    ______ ____
ROOT
ATOM      1  C   MET A   7       3.870  12.862 -24.483  0.00  0.00    +0.241 C 
ATOM      2  N   LEU A   8       5.076  13.010 -23.960  0.00  0.00    -0.297 N 
ATOM      3  H   LEU A   8       5.163  13.284 -22.961  0.00  0.00    +0.150 HD
ATOM      4  O   MET A   7       3.689  12.419 -25.610  0.00  0.00    -0.273 OA
ENDROOT
BRANCH   2   5
ATOM      5  CA  LEU A   8       6.281  12.800 -24.742  0.00  0.00    +0.149 C 
BRANCH   5   6
ATOM      6  C   LEU A   8       6.732  11.355 -24.875  0.00  0.00    +0.241 C 
ATOM      7  N   MET A   9       6.235  10.435 -24.021  0.00  0.00    -0.297 N 
ATOM      8  H   MET A   9       5.401  10.668 -23.445  0.00  0.00    +0.150 HD
ATOM      9  O   LEU A   8       7.469  11.044 -25.775  0.00  0.00    -0.273 OA
BRANCH   7  10
ATOM     10  CA  MET A   9       6.854   9.112 -23.893  0.00  0.00    +0.149 C 
BRANCH  10  11
ATOM     11  C   MET A   9       6.763   8.280 -25.183  0.00  0.00    +0.241 C 
ATOM     12  O   MET A   9       7.595   7.456 -25.375  0.00  0.00    -0.273 OA
ATOM     13  N   SER A  10       5.778   8.535 -26.049  0.00  0.00    -0.295 N 
ATOM     14  H   SER A  10       5.139   9.341 -25.898  0.00  0.00    +0.150 HD
BRANCH  13  15
ATOM     15  CA  SER A  10       5.611   7.659 -27.219  0.00  0.00    +0.178 C 
BRANCH  15  16
ATOM     16  C   SER A  10       6.351   8.230 -28.453  0.00  0.00    +0.243 C 
ATOM     17  N   TRP A  11       6.880   9.442 -28.332  0.00  0.00    -0.297 N 
ATOM     18  H   TRP A  11       6.834   9.931 -27.415  0.00  0.00    +0.150 HD
ATOM     19  O   SER A  10       6.383   7.584 -29.506  0.00  0.00    -0.273 OA
BRANCH  17  20
ATOM     20  CA  TRP A  11       7.538  10.113 -29.487  0.00  0.00    +0.153 C 
BRANCH  20  21
ATOM     21  C   TRP A  11       8.951   9.602 -29.654  0.00  0.00    +0.241 C 
ATOM     22  O   TRP A  11       9.667   9.397 -28.646  0.00  0.00    -0.273 OA
ATOM     23  N   ARG A  12       9.391   9.503 -30.922  0.00  0.00    -0.297 N 
ATOM     24  H   ARG A  12       8.786   9.826 -31.704  0.00  0.00    +0.150 HD
BRANCH  23  25
ATOM     25  CA  ARG A  12      10.696   8.952 -31.206  0.00  0.00    +0.149 C 
BRANCH  25  26
ATOM     26  C   ARG A  12      11.393   9.920 -32.187  0.00  0.00    +0.241 C 
ATOM     27  N   VAL A  13      12.520  10.443 -31.751  0.00  0.00    -0.298 N 
ATOM     28  H   VAL A  13      12.947  10.098 -30.868  0.00  0.00    +0.150 HD
ATOM     29  O   ARG A  12      10.878  10.218 -33.322  0.00  0.00    -0.273 OA
BRANCH  27  30
ATOM     30  CA  VAL A  13      13.176  11.518 -32.516  0.00  0.00    +0.137 C 
BRANCH  30  31
ATOM     31  CB  VAL A  13      13.169  12.836 -31.749  0.00  0.00    +0.026 C 
ATOM     32  CG2 VAL A  13      11.728  13.338 -31.482  0.00  0.00    +0.002 C 
ATOM     33  CG1 VAL A  13      13.914  13.991 -32.570  0.00  0.00    +0.002 C 
ENDBRANCH  30  31
BRANCH  30  34
ATOM     34  C   VAL A  13      14.620  11.085 -32.800  0.00  0.00    +0.227 C 
ATOM     35  O   VAL A  13      15.318  10.688 -31.880  0.00  0.00    -0.286 OA
ENDBRANCH  30  34
ENDBRANCH  27  30
ENDBRANCH  25  26
BRANCH  25  36
ATOM     36  CB  ARG A  12      10.664   7.577 -31.851  0.00  0.00    +0.033 C 
BRANCH  36  37
ATOM     37  CG  ARG A  12       9.839   6.522 -31.081  0.00  0.00    +0.045 C 
BRANCH  37  38
ATOM     38  CD  ARG A  12      10.652   6.118 -29.797  0.00  0.00    +0.174 C 
BRANCH  38  39
ATOM     39  NE  ARG A  12       9.814   5.241 -28.943  0.00  0.00    -0.265 N 
ATOM     40  CZ  ARG A  12       9.236   5.631 -27.812  0.00  0.00    +0.342 C 
ATOM     41  NH2 ARG A  12       8.488   4.734 -27.134  0.00  0.00    -0.292 N 
ATOM     42 HH21 ARG A  12       8.023   5.010 -26.246  0.00  0.00    +0.255 HD
ATOM     43 HH22 ARG A  12       8.377   3.767 -27.500  0.00  0.00    +0.255 HD
ATOM     44  NH1 ARG A  12       9.398   6.871 -27.351  0.00  0.00    -0.292 N 
ATOM     45 HH11 ARG A  12       8.939   7.160 -26.464  0.00  0.00    +0.255 HD
ATOM     46 HH12 ARG A  12       9.984   7.549 -27.878  0.00  0.00    +0.255 HD
ATOM     47  HE  ARG A  12       9.670   4.258 -29.249  0.00  0.00    +0.259 HD
ENDBRANCH  38  39
ENDBRANCH  37  38
ENDBRANCH  36  37
ENDBRANCH  25  36
ENDBRANCH  23  25
ENDBRANCH  20  21
BRANCH  20  48
ATOM     48  CB  TRP A  11       7.600  11.623 -29.213  0.00  0.00    +0.057 C 
BRANCH  48  49
ATOM     49  CG  TRP A  11       6.274  12.277 -29.474  0.00  0.00    -0.002 A 
ATOM     50  CD1 TRP A  11       5.367  12.666 -28.531  0.00  0.00    +0.068 A 
ATOM     51  NE1 TRP A  11       4.214  13.141 -29.181  0.00  0.00    -0.352 N 
ATOM     52  HE1 TRP A  11       3.374  13.525 -28.704  0.00  0.00    +0.166 HD
ATOM     53  CE2 TRP A  11       4.362  13.024 -30.519  0.00  0.00    +0.056 A 
ATOM     54  CZ2 TRP A  11       3.513  13.483 -31.544  0.00  0.00    +0.017 A 
ATOM     55  CH2 TRP A  11       3.888  13.238 -32.874  0.00  0.00    +0.001 A 
ATOM     56  CZ3 TRP A  11       5.149  12.647 -33.168  0.00  0.00    +0.000 A 
ATOM     57  CE3 TRP A  11       6.074  12.262 -32.076  0.00  0.00    +0.001 A 
ATOM     58  CD2 TRP A  11       5.653  12.471 -30.755  0.00  0.00    +0.013 A 
ENDBRANCH  48  49
ENDBRANCH  20  48
ENDBRANCH  17  20
ENDBRANCH  15  16
BRANCH  15  59
ATOM     59  CB  SER A  10       4.102   7.617 -27.593  0.00  0.00    +0.166 C 
BRANCH  59  60
ATOM     60  OG  SER A  10       3.551   9.021 -27.834  0.00  0.00    -0.380 OA
ATOM     61  H   SER A  10       4.048   9.447 -28.577  0.00  0.00    +0.211 HD
ENDBRANCH  59  60
ENDBRANCH  15  59
ENDBRANCH  13  15
ENDBRANCH  10  11
BRANCH  10  62
ATOM     62  CB  MET A   9       6.128   8.299 -22.778  0.00  0.00    +0.041 C 
BRANCH  62  63
ATOM     63  CG  MET A   9       6.965   6.998 -22.403  0.00  0.00    +0.060 C 
BRANCH  63  64
ATOM     64  SD  MET A   9       8.576   7.486 -21.640  0.00  0.00    -0.139 S 
ATOM     65  CE  MET A   9       8.093   8.222 -20.100  0.00  0.00    +0.069 C 
ENDBRANCH  63  64
ENDBRANCH  62  63
ENDBRANCH  10  62
ENDBRANCH   7  10
ENDBRANCH   5   6
BRANCH   5  66
ATOM     66  CB  LEU A   8       7.430  13.613 -24.110  0.00  0.00    +0.029 C 
BRANCH  66  67
ATOM     67  CG  LEU A   8       7.197  15.119 -24.246  0.00  0.00    +0.002 C 
ATOM     68  CD2 LEU A   8       8.336  15.757 -23.390  0.00  0.00    +0.000 C 
ATOM     69  CD1 LEU A   8       7.350  15.553 -25.721  0.00  0.00    +0.000 C 
ENDBRANCH  66  67
ENDBRANCH   5  66
ENDBRANCH   2   5
BRANCH   1  70
ATOM     70  CA  MET A   7       2.667  13.133 -23.564  0.00  0.00    +0.149 C 
BRANCH  70  72
ATOM     71  C   GLU A   6       3.022  11.251 -22.001  0.00  0.00    +0.241 C 
ATOM     72  N   MET A   7       2.906  12.553 -22.212  0.00  0.00    -0.297 N 
ATOM     73  H   MET A   7       2.985  13.198 -21.400  0.00  0.00    +0.150 HD
ATOM     74  O   GLU A   6       2.984  10.401 -22.905  0.00  0.00    -0.273 OA
BRANCH  71  75
ATOM     75  CA  GLU A   6       3.372  10.843 -20.586  0.00  0.00    +0.149 C 
BRANCH  75  77
ATOM     76  C   ALA A   5       5.490  12.078 -20.374  0.00  0.00    +0.241 C 
ATOM     77  N   GLU A   6       4.265  11.814 -19.887  0.00  0.00    -0.297 N 
ATOM     78  H   GLU A   6       3.938  12.288 -19.021  0.00  0.00    +0.150 HD
ATOM     79  O   ALA A   5       5.954  11.453 -21.350  0.00  0.00    -0.273 OA
BRANCH  76  80
ATOM     80  CA  ALA A   5       6.356  13.134 -19.658  0.00  0.00    +0.149 C 
ATOM     81  CB  ALA A   5       7.012  12.542 -18.367  0.00  0.00    +0.031 C 
BRANCH  80  83
ATOM     82  C   HIS A   4       4.929  15.009 -20.219  0.00  0.00    +0.241 C 
ATOM     83  N   ALA A   5       5.544  14.282 -19.303  0.00  0.00    -0.297 N 
ATOM     84  H   ALA A   5       5.443  14.540 -18.301  0.00  0.00    +0.150 HD
ATOM     85  O   HIS A   4       5.075  14.784 -21.416  0.00  0.00    -0.273 OA
BRANCH  82  86
ATOM     86  CA  HIS A   4       4.051  16.141 -19.716  0.00  0.00    +0.155 C 
BRANCH  86  88
ATOM     87  C   HIS A   3       2.206  14.826 -18.826  0.00  0.00    +0.241 C 
ATOM     88  N   HIS A   4       3.123  15.739 -18.635  0.00  0.00    -0.297 N 
ATOM     89  H   HIS A   4       3.202  16.193 -17.703  0.00  0.00    +0.150 HD
ATOM     90  O   HIS A   3       2.000  14.302 -19.920  0.00  0.00    -0.273 OA
BRANCH  87  91
ATOM     91  CA  HIS A   3       1.331  14.465 -17.592  0.00  0.00    +0.155 C 
BRANCH  91  93
ATOM     92  C   HIS A   2       3.030  13.281 -16.350  0.00  0.00    +0.241 C 
ATOM     93  N   HIS A   3       2.135  14.258 -16.362  0.00  0.00    -0.297 N 
ATOM     94  H   HIS A   3       1.999  14.866 -15.529  0.00  0.00    +0.150 HD
ATOM     95  O   HIS A   2       3.380  12.651 -17.398  0.00  0.00    -0.273 OA
BRANCH  92  96
ATOM     96  CA  HIS A   2       3.637  12.923 -14.974  0.00  0.00    +0.155 C 
BRANCH  96  99
ATOM     97  C   ASN A   1       3.830  14.774 -13.425  0.00  0.00    +0.239 C 
ATOM     98  O   ASN A   1       4.908  15.145 -13.880  0.00  0.00    -0.274 OA
ATOM     99  N   HIS A   2       3.115  13.757 -13.914  0.00  0.00    -0.297 N 
ATOM    100  H   HIS A   2       2.170  13.562 -13.527  0.00  0.00    +0.150 HD
BRANCH  97 101
ATOM    101  CA  ASN A   1       3.191  15.560 -12.243  0.00  0.00    +0.154 C 
BRANCH 101 102
ATOM    102  N   ASN A   1       4.135  15.682 -11.138  0.00  0.00    -0.238 NA
ATOM    103  H   ASN A   1       4.437  16.623 -10.814  0.00  0.00    +0.142 HD
ENDBRANCH 101 102
BRANCH 101 104
ATOM    104  CB  ASN A   1       2.837  16.998 -12.711  0.00  0.00    +0.111 C 
BRANCH 104 105
ATOM    105  CG  ASN A   1       1.685  17.015 -13.704  0.00  0.00    +0.221 C 
ATOM    106  OD1 ASN A   1       1.163  15.965 -14.100  0.00  0.00    -0.275 OA
ATOM    107  ND2 ASN A   1       1.271  18.238 -14.102  0.00  0.00    -0.329 N 
ATOM    108 HD21 ASN A   1       1.744  19.090 -13.739  0.00  0.00    +0.145 HD
ATOM    109 HD22 ASN A   1       0.480  18.327 -14.771  0.00  0.00    +0.145 HD
ENDBRANCH 104 105
ENDBRANCH 101 104
ENDBRANCH  97 101
ENDBRANCH  96  99
BRANCH  96 110
ATOM    110  CB  HIS A   2       3.271  11.489 -14.701  0.00  0.00    +0.076 C 
BRANCH 110 111
ATOM    111  CG  HIS A   2       4.049  10.816 -13.598  0.00  0.00    +0.082 A 
ATOM    112  ND1 HIS A   2       4.847  11.469 -12.692  0.00  0.00    -0.227 NA
ATOM    113  CE1 HIS A   2       5.368  10.580 -11.842  0.00  0.00    +0.199 A 
ATOM    114  NE2 HIS A   2       4.944   9.379 -12.193  0.00  0.00    -0.221 NA
ATOM    115  CD2 HIS A   2       4.157   9.500 -13.315  0.00  0.00    +0.115 A 
ENDBRANCH 110 111
ENDBRANCH  96 110
ENDBRANCH  92  96
ENDBRANCH  91  93
BRANCH  91 116
ATOM    116  CB  HIS A   3       0.310  15.577 -17.368  0.00  0.00    +0.076 C 
BRANCH 116 117
ATOM    117  CG  HIS A   3      -0.636  15.722 -18.520  0.00  0.00    +0.082 A 
ATOM    118  CD2 HIS A   3      -1.712  14.980 -18.875  0.00  0.00    +0.115 A 
ATOM    119  NE2 HIS A   3      -2.181  15.497 -20.055  0.00  0.00    -0.221 NA
ATOM    120  CE1 HIS A   3      -1.404  16.508 -20.423  0.00  0.00    +0.199 A 
ATOM    121  ND1 HIS A   3      -0.447  16.645 -19.529  0.00  0.00    -0.227 NA
ENDBRANCH 116 117
ENDBRANCH  91 116
ENDBRANCH  87  91
ENDBRANCH  86  88
BRANCH  86 122
ATOM    122  CB  HIS A   4       4.842  17.311 -19.224  0.00  0.00    +0.076 C 
BRANCH 122 123
ATOM    123  CG  HIS A   4       5.938  17.761 -20.127  0.00  0.00    +0.082 A 
ATOM    124  CD2 HIS A   4       7.271  17.535 -20.057  0.00  0.00    +0.115 A 
ATOM    125  NE2 HIS A   4       7.856  18.240 -21.085  0.00  0.00    -0.221 NA
ATOM    126  CE1 HIS A   4       6.910  18.866 -21.771  0.00  0.00    +0.199 A 
ATOM    127  ND1 HIS A   4       5.739  18.595 -21.216  0.00  0.00    -0.227 NA
ENDBRANCH 122 123
ENDBRANCH  86 122
ENDBRANCH  82  86
ENDBRANCH  80  83
ENDBRANCH  76  80
ENDBRANCH  75  77
BRANCH  75 128
ATOM    128  CB  GLU A   6       2.092  10.506 -19.768  0.00  0.00    +0.041 C 
BRANCH 128 129
ATOM    129  CG  GLU A   6       2.440   9.759 -18.433  0.00  0.00    +0.116 C 
BRANCH 129 130
ATOM    130  CD  GLU A   6       2.855   8.247 -18.513  0.00  0.00    +0.365 C 
ATOM    131  OE2 GLU A   6       2.956   7.581 -17.380  0.00  0.00    -0.246 OA
ATOM    132  OE1 GLU A   6       3.136   7.709 -19.628  0.00  0.00    -0.246 OA
ENDBRANCH 129 130
ENDBRANCH 128 129
ENDBRANCH  75 128
ENDBRANCH  71  75
ENDBRANCH  70  72
BRANCH  70 133
ATOM    133  CB  MET A   7       2.474  14.628 -23.456  0.00  0.00    +0.041 C 
BRANCH 133 134
ATOM    134  CG  MET A   7       1.888  15.291 -24.717  0.00  0.00    +0.060 C 
BRANCH 134 135
ATOM    135  SD  MET A   7       2.689  16.842 -24.894  0.00  0.00    -0.139 S 
ATOM    136  CE  MET A   7       3.852  15.813 -25.850  0.00  0.00    +0.069 C 
ENDBRANCH 134 135
ENDBRANCH 133 134
ENDBRANCH  70 133
ENDBRANCH   1  70
TORSDOF 54
REMARK  Name = ../refined-set-2016/4oiv/4oiv_pocket.pdb
REMARK  245 active torsions:
REMARK  status: ('A' for Active; 'I' for Inactive)
REMARK    1  A    between atoms: _1  and  _3
REMARK    2  A    between atoms: _3  and  _4
REMARK    3  A    between atoms: _3  and  _6
REMARK    4  A    between atoms: _6  and  _7
REMARK    5  A    between atoms: _12  and  _14
REMARK    6  A    between atoms: _14  and  _15
REMARK    7  A    between atoms: _14  and  _17
REMARK    8  A    between atoms: _17  and  _18
REMARK    9  A    between atoms: _24  and  _26
REMARK   10  A    between atoms: _26  and  _27
REMARK   11  A    between atoms: _26  and  _29
REMARK   12  A    between atoms: _29  and  _30
REMARK   13  A    between atoms: _33  and  _35
REMARK   14  A    between atoms: _35  and  _36
REMARK   15  A    between atoms: _35  and  _38
REMARK   16  A    between atoms: _38  and  _39
REMARK   17  A    between atoms: _42  and  _44
REMARK   18  A    between atoms: _44  and  _45
REMARK   19  A    between atoms: _44  and  _47
REMARK   20  A    between atoms: _47  and  _48
REMARK   21  A    between atoms: _51  and  _53
REMARK   22  A    between atoms: _53  and  _54
REMARK   23  A    between atoms: _53  and  _56
REMARK   24  A    between atoms: _56  and  _57
REMARK   25  A    between atoms: _60  and  _62
REMARK   26  A    between atoms: _62  and  _63
REMARK   27  A    between atoms: _62  and  _65
REMARK   28  A    between atoms: _65  and  _66
REMARK   29  A    between atoms: _66  and  _67
REMARK   30  A    between atoms: _70  and  _72
REMARK   31  A    between atoms: _72  and  _73
REMARK   32  A    between atoms: _72  and  _75
REMARK   33  A    between atoms: _75  and  _76
REMARK   34  A    between atoms: _76  and  _77
REMARK   35  A    between atoms: _79  and  _81
REMARK   36  A    between atoms: _81  and  _82
REMARK   37  A    between atoms: _85  and  _87
REMARK   38  A    between atoms: _87  and  _88
REMARK   39  A    between atoms: _87  and  _90
REMARK   40  A    between atoms: _90  and  _91
REMARK   41  A    between atoms: _94  and  _96
REMARK   42  A    between atoms: _96  and  _97
REMARK   43  A    between atoms: _96  and  _99
REMARK   44  A    between atoms: _99  and  _100
REMARK   45  A    between atoms: _105  and  _107
REMARK   46  A    between atoms: _107  and  _108
REMARK   47  A    between atoms: _107  and  _110
REMARK   48  A    between atoms: _110  and  _111
REMARK   49  A    between atoms: _116  and  _118
REMARK   50  A    between atoms: _118  and  _119
REMARK   51  A    between atoms: _118  and  _121
REMARK   52  A    between atoms: _124  and  _126
REMARK   53  A    between atoms: _126  and  _127
REMARK   54  A    between atoms: _126  and  _129
REMARK   55  A    between atoms: _129  and  _130
REMARK   56  A    between atoms: _130  and  _131
REMARK   57  A    between atoms: _136  and  _138
REMARK   58  A    between atoms: _138  and  _139
REMARK   59  A    between atoms: _138  and  _141
REMARK   60  A    between atoms: _141  and  _142
REMARK   61  A    between atoms: _145  and  _147
REMARK   62  A    between atoms: _147  and  _148
REMARK   63  A    between atoms: _151  and  _153
REMARK   64  A    between atoms: _153  and  _154
REMARK   65  A    between atoms: _153  and  _156
REMARK   66  A    between atoms: _159  and  _161
REMARK   67  A    between atoms: _161  and  _162
REMARK   68  A    between atoms: _161  and  _164
REMARK   69  A    between atoms: _164  and  _165
REMARK   70  A    between atoms: _165  and  _166
REMARK   71  A    between atoms: _169  and  _171
REMARK   72  A    between atoms: _171  and  _172
REMARK   73  A    between atoms: _175  and  _177
REMARK   74  A    between atoms: _177  and  _178
REMARK   75  A    between atoms: _177  and  _180
REMARK   76  A    between atoms: _180  and  _181
REMARK   77  A    between atoms: _181  and  _182
REMARK   78  A    between atoms: _184  and  _186
REMARK   79  A    between atoms: _186  and  _187
REMARK   80  A    between atoms: _186  and  _189
REMARK   81  A    between atoms: _189  and  _190
REMARK   82  A    between atoms: _196  and  _198
REMARK   83  A    between atoms: _198  and  _199
REMARK   84  A    between atoms: _198  and  _201
REMARK   85  A    between atoms: _201  and  _202
REMARK   86  A    between atoms: _205  and  _207
REMARK   87  A    between atoms: _207  and  _208
REMARK   88  A    between atoms: _207  and  _210
REMARK   89  A    between atoms: _210  and  _211
REMARK   90  A    between atoms: _211  and  _212
REMARK   91  A    between atoms: _212  and  _213
REMARK   92  A    between atoms: _222  and  _224
REMARK   93  A    between atoms: _224  and  _225
REMARK   94  A    between atoms: _224  and  _227
REMARK   95  A    between atoms: _227  and  _228
REMARK   96  A    between atoms: _230  and  _232
REMARK   97  A    between atoms: _232  and  _233
REMARK   98  A    between atoms: _236  and  _238
REMARK   99  A    between atoms: _238  and  _239
REMARK  100  A    between atoms: _238  and  _241
REMARK  101  A    between atoms: _241  and  _242
REMARK  102  A    between atoms: _245  and  _247
REMARK  103  A    between atoms: _247  and  _248
REMARK  104  A    between atoms: _247  and  _250
REMARK  105  A    between atoms: _250  and  _251
REMARK  106  A    between atoms: _257  and  _259
REMARK  107  A    between atoms: _259  and  _260
REMARK  108  A    between atoms: _259  and  _262
REMARK  109  A    between atoms: _262  and  _263
REMARK  110  A    between atoms: _266  and  _268
REMARK  111  A    between atoms: _268  and  _269
REMARK  112  A    between atoms: _268  and  _271
REMARK  113  A    between atoms: _271  and  _272
REMARK  114  A    between atoms: _272  and  _273
REMARK  115  A    between atoms: _273  and  _274
REMARK  116  A    between atoms: _283  and  _285
REMARK  117  A    between atoms: _285  and  _286
REMARK  118  A    between atoms: _285  and  _288
REMARK  119  A    between atoms: _288  and  _289
REMARK  120  A    between atoms: _292  and  _294
REMARK  121  A    between atoms: _294  and  _295
REMARK  122  A    between atoms: _294  and  _297
REMARK  123  A    between atoms: _297  and  _298
REMARK  124  A    between atoms: _298  and  _299
REMARK  125  A    between atoms: _299  and  _300
REMARK  126  A    between atoms: _309  and  _311
REMARK  127  A    between atoms: _311  and  _312
REMARK  128  A    between atoms: _311  and  _314
REMARK  129  A    between atoms: _314  and  _315
REMARK  130  A    between atoms: _317  and  _319
REMARK  131  A    between atoms: _319  and  _320
REMARK  132  A    between atoms: _319  and  _322
REMARK  133  A    between atoms: _322  and  _323
REMARK  134  A    between atoms: _326  and  _328
REMARK  135  A    between atoms: _328  and  _329
REMARK  136  A    between atoms: _328  and  _331
REMARK  137  A    between atoms: _331  and  _332
REMARK  138  A    between atoms: _334  and  _336
REMARK  139  A    between atoms: _336  and  _337
REMARK  140  A    between atoms: _336  and  _339
REMARK  141  A    between atoms: _339  and  _340
REMARK  142  A    between atoms: _343  and  _345
REMARK  143  A    between atoms: _345  and  _346
REMARK  144  A    between atoms: _345  and  _348
REMARK  145  A    between atoms: _348  and  _349
REMARK  146  A    between atoms: _349  and  _350
REMARK  147  A    between atoms: _353  and  _355
REMARK  148  A    between atoms: _355  and  _356
REMARK  149  A    between atoms: _355  and  _358
REMARK  150  A    between atoms: _358  and  _359
REMARK  151  A    between atoms: _364  and  _365
REMARK  152  A    between atoms: _367  and  _369
REMARK  153  A    between atoms: _369  and  _370
REMARK  154  A    between atoms: _369  and  _372
REMARK  155  A    between atoms: _372  and  _373
REMARK  156  A    between atoms: _376  and  _378
REMARK  157  A    between atoms: _378  and  _379
REMARK  158  A    between atoms: _378  and  _381
REMARK  159  A    between atoms: _381  and  _382
REMARK  160  A    between atoms: _386  and  _387
REMARK  161  A    between atoms: _392  and  _394
REMARK  162  A    between atoms: _394  and  _395
REMARK  163  A    between atoms: _394  and  _397
REMARK  164  A    between atoms: _397  and  _398
REMARK  165  A    between atoms: _398  and  _399
REMARK  166  A    between atoms: _401  and  _403
REMARK  167  A    between atoms: _403  and  _404
REMARK  168  A    between atoms: _403  and  _406
REMARK  169  A    between atoms: _406  and  _407
REMARK  170  A    between atoms: _413  and  _415
REMARK  171  A    between atoms: _415  and  _416
REMARK  172  A    between atoms: _415  and  _418
REMARK  173  A    between atoms: _418  and  _419
REMARK  174  A    between atoms: _424  and  _425
REMARK  175  A    between atoms: _427  and  _429
REMARK  176  A    between atoms: _429  and  _430
REMARK  177  A    between atoms: _429  and  _432
REMARK  178  A    between atoms: _432  and  _433
REMARK  179  A    between atoms: _438  and  _440
REMARK  180  A    between atoms: _440  and  _441
REMARK  181  A    between atoms: _440  and  _443
REMARK  182  A    between atoms: _443  and  _444
REMARK  183  A    between atoms: _449  and  _451
REMARK  184  A    between atoms: _451  and  _452
REMARK  185  A    between atoms: _451  and  _454
REMARK  186  A    between atoms: _454  and  _455
REMARK  187  A    between atoms: _460  and  _462
REMARK  188  A    between atoms: _462  and  _463
REMARK  189  A    between atoms: _462  and  _465
REMARK  190  A    between atoms: _465  and  _466
REMARK  191  A    between atoms: _471  and  _473
REMARK  192  A    between atoms: _473  and  _474
REMARK  193  A    between atoms: _477  and  _479
REMARK  194  A    between atoms: _479  and  _480
REMARK  195  A    between atoms: _479  and  _482
REMARK  196  A    between atoms: _482  and  _483
REMARK  197  A    between atoms: _483  and  _484
REMARK  198  A    between atoms: _487  and  _489
REMARK  199  A    between atoms: _489  and  _490
REMARK  200  A    between atoms: _489  and  _492
REMARK  201  A    between atoms: _492  and  _493
REMARK  202  A    between atoms: _493  and  _494
REMARK  203  A    between atoms: _496  and  _498
REMARK  204  A    between atoms: _498  and  _499
REMARK  205  A    between atoms: _498  and  _501
REMARK  206  A    between atoms: _501  and  _502
REMARK  207  A    between atoms: _505  and  _507
REMARK  208  A    between atoms: _507  and  _508
REMARK  209  A    between atoms: _507  and  _510
REMARK  210  A    between atoms: _510  and  _511
REMARK  211  A    between atoms: _511  and  _512
REMARK  212  A    between atoms: _514  and  _516
REMARK  213  A    between atoms: _516  and  _517
REMARK  214  A    between atoms: _516  and  _519
REMARK  215  A    between atoms: _519  and  _520
REMARK  216  A    between atoms: _522  and  _524
REMARK  217  A    between atoms: _524  and  _525
REMARK  218  A    between atoms: _524  and  _527
REMARK  219  A    between atoms: _527  and  _528
REMARK  220  A    between atoms: _538  and  _540
REMARK  221  A    between atoms: _540  and  _541
REMARK  222  A    between atoms: _540  and  _543
REMARK  223  A    between atoms: _543  and  _544
REMARK  224  A    between atoms: _544  and  _545
REMARK  225  A    between atoms: _545  and  _546
REMARK  226  A    between atoms: _555  and  _557
REMARK  227  A    between atoms: _557  and  _558
REMARK  228  A    between atoms: _557  and  _560
REMARK  229  A    between atoms: _563  and  _565
REMARK  230  A    between atoms: _565  and  _566
REMARK  231  A    between atoms: _565  and  _568
REMARK  232  A    between atoms: _568  and  _569
REMARK  233  A    between atoms: _569  and  _570
REMARK  234  A    between atoms: _573  and  _575
REMARK  235  A    between atoms: _575  and  _576
REMARK  236  A    between atoms: _575  and  _578
REMARK  237  A    between atoms: _578  and  _579
REMARK  238  A    between atoms: _582  and  _584
REMARK  239  A    between atoms: _584  and  _585
REMARK  240  A    between atoms: _584  and  _587
REMARK  241  A    between atoms: _587  and  _588
REMARK  242  A    between atoms: _591  and  _593
REMARK  243  A    between atoms: _593  and  _594
REMARK  244  A    between atoms: _593  and  _596
REMARK  245  A    between atoms: _596  and  _597
REMARK                            x       y       z     vdW  Elec       q    Type
REMARK                         _______ _______ _______ _____ _____    ______ ____
ROOT
ATOM      1  CA  GLU A   1       5.554  20.711 -28.011  0.00  0.00    +0.134 C 
ENDROOT
BRANCH   1   2
ATOM      2  N   GLU A   1       4.691  21.879 -27.702  0.00  0.00    -0.239 NA
ATOM      3  H   GLU A   1       4.352  22.042 -26.732  0.00  0.00    +0.142 HD
ENDBRANCH   1   2
BRANCH   1   4
ATOM      4  C   GLU A   1       4.809  19.657 -28.791  0.00  0.00    +0.224 C 
ATOM      5  O   GLU A   1       5.332  19.165 -29.743  0.00  0.00    -0.287 OA
ENDBRANCH   1   4
BRANCH   1   6
ATOM      6  CB  GLU A   1       6.034  20.029 -26.761  0.00  0.00    +0.037 C 
BRANCH   6   7
ATOM      7  CG  GLU A   1       6.978  20.966 -26.060  0.00  0.00    +0.116 C 
BRANCH   7   8
ATOM      8  CD  GLU A   1       7.041  20.596 -24.562  0.00  0.00    +0.365 C 
ATOM      9  OE2 GLU A   1       6.351  21.219 -23.713  0.00  0.00    -0.246 OA
ATOM     10  OE1 GLU A   1       7.745  19.649 -24.253  0.00  0.00    -0.246 OA
ENDBRANCH   7   8
ENDBRANCH   6   7
ENDBRANCH   1   6
TORSDOF 5
REMARK  Name = ../refined-set-2016/4oiv/4oiv_pocket.pdb
REMARK  245 active torsions:
REMARK  status: ('A' for Active; 'I' for Inactive)
REMARK    1  A    between atoms: _1  and  _3
REMARK    2  A    between atoms: _3  and  _4
REMARK    3  A    between atoms: _3  and  _6
REMARK    4  A    between atoms: _6  and  _7
REMARK    5  A    between atoms: _12  and  _14
REMARK    6  A    between atoms: _14  and  _15
REMARK    7  A    between atoms: _14  and  _17
REMARK    8  A    between atoms: _17  and  _18
REMARK    9  A    between atoms: _24  and  _26
REMARK   10  A    between atoms: _26  and  _27
REMARK   11  A    between atoms: _26  and  _29
REMARK   12  A    between atoms: _29  and  _30
REMARK   13  A    between atoms: _33  and  _35
REMARK   14  A    between atoms: _35  and  _36
REMARK   15  A    between atoms: _35  and  _38
REMARK   16  A    between atoms: _38  and  _39
REMARK   17  A    between atoms: _42  and  _44
REMARK   18  A    between atoms: _44  and  _45
REMARK   19  A    between atoms: _44  and  _47
REMARK   20  A    between atoms: _47  and  _48
REMARK   21  A    between atoms: _51  and  _53
REMARK   22  A    between atoms: _53  and  _54
REMARK   23  A    between atoms: _53  and  _56
REMARK   24  A    between atoms: _56  and  _57
REMARK   25  A    between atoms: _60  and  _62
REMARK   26  A    between atoms: _62  and  _63
REMARK   27  A    between atoms: _62  and  _65
REMARK   28  A    between atoms: _65  and  _66
REMARK   29  A    between atoms: _66  and  _67
REMARK   30  A    between atoms: _70  and  _72
REMARK   31  A    between atoms: _72  and  _73
REMARK   32  A    between atoms: _72  and  _75
REMARK   33  A    between atoms: _75  and  _76
REMARK   34  A    between atoms: _76  and  _77
REMARK   35  A    between atoms: _79  and  _81
REMARK   36  A    between atoms: _81  and  _82
REMARK   37  A    between atoms: _85  and  _87
REMARK   38  A    between atoms: _87  and  _88
REMARK   39  A    between atoms: _87  and  _90
REMARK   40  A    between atoms: _90  and  _91
REMARK   41  A    between atoms: _94  and  _96
REMARK   42  A    between atoms: _96  and  _97
REMARK   43  A    between atoms: _96  and  _99
REMARK   44  A    between atoms: _99  and  _100
REMARK   45  A    between atoms: _105  and  _107
REMARK   46  A    between atoms: _107  and  _108
REMARK   47  A    between atoms: _107  and  _110
REMARK   48  A    between atoms: _110  and  _111
REMARK   49  A    between atoms: _116  and  _118
REMARK   50  A    between atoms: _118  and  _119
REMARK   51  A    between atoms: _118  and  _121
REMARK   52  A    between atoms: _124  and  _126
REMARK   53  A    between atoms: _126  and  _127
REMARK   54  A    between atoms: _126  and  _129
REMARK   55  A    between atoms: _129  and  _130
REMARK   56  A    between atoms: _130  and  _131
REMARK   57  A    between atoms: _136  and  _138
REMARK   58  A    between atoms: _138  and  _139
REMARK   59  A    between atoms: _138  and  _141
REMARK   60  A    between atoms: _141  and  _142
REMARK   61  A    between atoms: _145  and  _147
REMARK   62  A    between atoms: _147  and  _148
REMARK   63  A    between atoms: _151  and  _153
REMARK   64  A    between atoms: _153  and  _154
REMARK   65  A    between atoms: _153  and  _156
REMARK   66  A    between atoms: _159  and  _161
REMARK   67  A    between atoms: _161  and  _162
REMARK   68  A    between atoms: _161  and  _164
REMARK   69  A    between atoms: _164  and  _165
REMARK   70  A    between atoms: _165  and  _166
REMARK   71  A    between atoms: _169  and  _171
REMARK   72  A    between atoms: _171  and  _172
REMARK   73  A    between atoms: _175  and  _177
REMARK   74  A    between atoms: _177  and  _178
REMARK   75  A    between atoms: _177  and  _180
REMARK   76  A    between atoms: _180  and  _181
REMARK   77  A    between atoms: _181  and  _182
REMARK   78  A    between atoms: _184  and  _186
REMARK   79  A    between atoms: _186  and  _187
REMARK   80  A    between atoms: _186  and  _189
REMARK   81  A    between atoms: _189  and  _190
REMARK   82  A    between atoms: _196  and  _198
REMARK   83  A    between atoms: _198  and  _199
REMARK   84  A    between atoms: _198  and  _201
REMARK   85  A    between atoms: _201  and  _202
REMARK   86  A    between atoms: _205  and  _207
REMARK   87  A    between atoms: _207  and  _208
REMARK   88  A    between atoms: _207  and  _210
REMARK   89  A    between atoms: _210  and  _211
REMARK   90  A    between atoms: _211  and  _212
REMARK   91  A    between atoms: _212  and  _213
REMARK   92  A    between atoms: _222  and  _224
REMARK   93  A    between atoms: _224  and  _225
REMARK   94  A    between atoms: _224  and  _227
REMARK   95  A    between atoms: _227  and  _228
REMARK   96  A    between atoms: _230  and  _232
REMARK   97  A    between atoms: _232  and  _233
REMARK   98  A    between atoms: _236  and  _238
REMARK   99  A    between atoms: _238  and  _239
REMARK  100  A    between atoms: _238  and  _241
REMARK  101  A    between atoms: _241  and  _242
REMARK  102  A    between atoms: _245  and  _247
REMARK  103  A    between atoms: _247  and  _248
REMARK  104  A    between atoms: _247  and  _250
REMARK  105  A    between atoms: _250  and  _251
REMARK  106  A    between atoms: _257  and  _259
REMARK  107  A    between atoms: _259  and  _260
REMARK  108  A    between atoms: _259  and  _262
REMARK  109  A    between atoms: _262  and  _263
REMARK  110  A    between atoms: _266  and  _268
REMARK  111  A    between atoms: _268  and  _269
REMARK  112  A    between atoms: _268  and  _271
REMARK  113  A    between atoms: _271  and  _272
REMARK  114  A    between atoms: _272  and  _273
REMARK  115  A    between atoms: _273  and  _274
REMARK  116  A    between atoms: _283  and  _285
REMARK  117  A    between atoms: _285  and  _286
REMARK  118  A    between atoms: _285  and  _288
REMARK  119  A    between atoms: _288  and  _289
REMARK  120  A    between atoms: _292  and  _294
REMARK  121  A    between atoms: _294  and  _295
REMARK  122  A    between atoms: _294  and  _297
REMARK  123  A    between atoms: _297  and  _298
REMARK  124  A    between atoms: _298  and  _299
REMARK  125  A    between atoms: _299  and  _300
REMARK  126  A    between atoms: _309  and  _311
REMARK  127  A    between atoms: _311  and  _312
REMARK  128  A    between atoms: _311  and  _314
REMARK  129  A    between atoms: _314  and  _315
REMARK  130  A    between atoms: _317  and  _319
REMARK  131  A    between atoms: _319  and  _320
REMARK  132  A    between atoms: _319  and  _322
REMARK  133  A    between atoms: _322  and  _323
REMARK  134  A    between atoms: _326  and  _328
REMARK  135  A    between atoms: _328  and  _329
REMARK  136  A    between atoms: _328  and  _331
REMARK  137  A    between atoms: _331  and  _332
REMARK  138  A    between atoms: _334  and  _336
REMARK  139  A    between atoms: _336  and  _337
REMARK  140  A    between atoms: _336  and  _339
REMARK  141  A    between atoms: _339  and  _340
REMARK  142  A    between atoms: _343  and  _345
REMARK  143  A    between atoms: _345  and  _346
REMARK  144  A    between atoms: _345  and  _348
REMARK  145  A    between atoms: _348  and  _349
REMARK  146  A    between atoms: _349  and  _350
REMARK  147  A    between atoms: _353  and  _355
REMARK  148  A    between atoms: _355  and  _356
REMARK  149  A    between atoms: _355  and  _358
REMARK  150  A    between atoms: _358  and  _359
REMARK  151  A    between atoms: _364  and  _365
REMARK  152  A    between atoms: _367  and  _369
REMARK  153  A    between atoms: _369  and  _370
REMARK  154  A    between atoms: _369  and  _372
REMARK  155  A    between atoms: _372  and  _373
REMARK  156  A    between atoms: _376  and  _378
REMARK  157  A    between atoms: _378  and  _379
REMARK  158  A    between atoms: _378  and  _381
REMARK  159  A    between atoms: _381  and  _382
REMARK  160  A    between atoms: _386  and  _387
REMARK  161  A    between atoms: _392  and  _394
REMARK  162  A    between atoms: _394  and  _395
REMARK  163  A    between atoms: _394  and  _397
REMARK  164  A    between atoms: _397  and  _398
REMARK  165  A    between atoms: _398  and  _399
REMARK  166  A    between atoms: _401  and  _403
REMARK  167  A    between atoms: _403  and  _404
REMARK  168  A    between atoms: _403  and  _406
REMARK  169  A    between atoms: _406  and  _407
REMARK  170  A    between atoms: _413  and  _415
REMARK  171  A    between atoms: _415  and  _416
REMARK  172  A    between atoms: _415  and  _418
REMARK  173  A    between atoms: _418  and  _419
REMARK  174  A    between atoms: _424  and  _425
REMARK  175  A    between atoms: _427  and  _429
REMARK  176  A    between atoms: _429  and  _430
REMARK  177  A    between atoms: _429  and  _432
REMARK  178  A    between atoms: _432  and  _433
REMARK  179  A    between atoms: _438  and  _440
REMARK  180  A    between atoms: _440  and  _441
REMARK  181  A    between atoms: _440  and  _443
REMARK  182  A    between atoms: _443  and  _444
REMARK  183  A    between atoms: _449  and  _451
REMARK  184  A    between atoms: _451  and  _452
REMARK  185  A    between atoms: _451  and  _454
REMARK  186  A    between atoms: _454  and  _455
REMARK  187  A    between atoms: _460  and  _462
REMARK  188  A    between atoms: _462  and  _463
REMARK  189  A    between atoms: _462  and  _465
REMARK  190  A    between atoms: _465  and  _466
REMARK  191  A    between atoms: _471  and  _473
REMARK  192  A    between atoms: _473  and  _474
REMARK  193  A    between atoms: _477  and  _479
REMARK  194  A    between atoms: _479  and  _480
REMARK  195  A    between atoms: _479  and  _482
REMARK  196  A    between atoms: _482  and  _483
REMARK  197  A    between atoms: _483  and  _484
REMARK  198  A    between atoms: _487  and  _489
REMARK  199  A    between atoms: _489  and  _490
REMARK  200  A    between atoms: _489  and  _492
REMARK  201  A    between atoms: _492  and  _493
REMARK  202  A    between atoms: _493  and  _494
REMARK  203  A    between atoms: _496  and  _498
REMARK  204  A    between atoms: _498  and  _499
REMARK  205  A    between atoms: _498  and  _501
REMARK  206  A    between atoms: _501  and  _502
REMARK  207  A    between atoms: _505  and  _507
REMARK  208  A    between atoms: _507  and  _508
REMARK  209  A    between atoms: _507  and  _510
REMARK  210  A    between atoms: _510  and  _511
REMARK  211  A    between atoms: _511  and  _512
REMARK  212  A    between atoms: _514  and  _516
REMARK  213  A    between atoms: _516  and  _517
REMARK  214  A    between atoms: _516  and  _519
REMARK  215  A    between atoms: _519  and  _520
REMARK  216  A    between atoms: _522  and  _524
REMARK  217  A    between atoms: _524  and  _525
REMARK  218  A    between atoms: _524  and  _527
REMARK  219  A    between atoms: _527  and  _528
REMARK  220  A    between atoms: _538  and  _540
REMARK  221  A    between atoms: _540  and  _541
REMARK  222  A    between atoms: _540  and  _543
REMARK  223  A    between atoms: _543  and  _544
REMARK  224  A    between atoms: _544  and  _545
REMARK  225  A    between atoms: _545  and  _546
REMARK  226  A    between atoms: _555  and  _557
REMARK  227  A    between atoms: _557  and  _558
REMARK  228  A    between atoms: _557  and  _560
REMARK  229  A    between atoms: _563  and  _565
REMARK  230  A    between atoms: _565  and  _566
REMARK  231  A    between atoms: _565  and  _568
REMARK  232  A    between atoms: _568  and  _569
REMARK  233  A    between atoms: _569  and  _570
REMARK  234  A    between atoms: _573  and  _575
REMARK  235  A    between atoms: _575  and  _576
REMARK  236  A    between atoms: _575  and  _578
REMARK  237  A    between atoms: _578  and  _579
REMARK  238  A    between atoms: _582  and  _584
REMARK  239  A    between atoms: _584  and  _585
REMARK  240  A    between atoms: _584  and  _587
REMARK  241  A    between atoms: _587  and  _588
REMARK  242  A    between atoms: _591  and  _593
REMARK  243  A    between atoms: _593  and  _594
REMARK  244  A    between atoms: _593  and  _596
REMARK  245  A    between atoms: _596  and  _597
REMARK                            x       y       z     vdW  Elec       q    Type
REMARK                         _______ _______ _______ _____ _____    ______ ____
ROOT
ATOM      1  CA  LEU A   1       6.070  16.994 -32.943  0.00  0.00    +0.133 C 
ENDROOT
BRANCH   1   2
ATOM      2  N   LEU A   1       5.839  18.408 -32.619  0.00  0.00    -0.239 NA
ATOM      3  H   LEU A   1       5.550  18.671 -31.655  0.00  0.00    +0.142 HD
ENDBRANCH   1   2
BRANCH   1   4
ATOM      4  C   LEU A   1       5.085  16.469 -34.009  0.00  0.00    +0.224 C 
ATOM      5  O   LEU A   1       5.470  15.729 -34.885  0.00  0.00    -0.287 OA
ENDBRANCH   1   4
BRANCH   1   6
ATOM      6  CB  LEU A   1       5.889  16.196 -31.629  0.00  0.00    +0.025 C 
BRANCH   6   7
ATOM      7  CG  LEU A   1       7.089  16.382 -30.709  0.00  0.00    +0.002 C 
ATOM      8  CD2 LEU A   1       6.789  15.921 -29.224  0.00  0.00    +0.000 C 
ATOM      9  CD1 LEU A   1       8.437  15.697 -31.223  0.00  0.00    +0.000 C 
ENDBRANCH   6   7
ENDBRANCH   1   6
TORSDOF 4
REMARK  Name = ../refined-set-2016/4oiv/4oiv_pocket.pdb
REMARK  245 active torsions:
REMARK  status: ('A' for Active; 'I' for Inactive)
REMARK    1  A    between atoms: _1  and  _3
REMARK    2  A    between atoms: _3  and  _4
REMARK    3  A    between atoms: _3  and  _6
REMARK    4  A    between atoms: _6  and  _7
REMARK    5  A    between atoms: _12  and  _14
REMARK    6  A    between atoms: _14  and  _15
REMARK    7  A    between atoms: _14  and  _17
REMARK    8  A    between atoms: _17  and  _18
REMARK    9  A    between atoms: _24  and  _26
REMARK   10  A    between atoms: _26  and  _27
REMARK   11  A    between atoms: _26  and  _29
REMARK   12  A    between atoms: _29  and  _30
REMARK   13  A    between atoms: _33  and  _35
REMARK   14  A    between atoms: _35  and  _36
REMARK   15  A    between atoms: _35  and  _38
REMARK   16  A    between atoms: _38  and  _39
REMARK   17  A    between atoms: _42  and  _44
REMARK   18  A    between atoms: _44  and  _45
REMARK   19  A    between atoms: _44  and  _47
REMARK   20  A    between atoms: _47  and  _48
REMARK   21  A    between atoms: _51  and  _53
REMARK   22  A    between atoms: _53  and  _54
REMARK   23  A    between atoms: _53  and  _56
REMARK   24  A    between atoms: _56  and  _57
REMARK   25  A    between atoms: _60  and  _62
REMARK   26  A    between atoms: _62  and  _63
REMARK   27  A    between atoms: _62  and  _65
REMARK   28  A    between atoms: _65  and  _66
REMARK   29  A    between atoms: _66  and  _67
REMARK   30  A    between atoms: _70  and  _72
REMARK   31  A    between atoms: _72  and  _73
REMARK   32  A    between atoms: _72  and  _75
REMARK   33  A    between atoms: _75  and  _76
REMARK   34  A    between atoms: _76  and  _77
REMARK   35  A    between atoms: _79  and  _81
REMARK   36  A    between atoms: _81  and  _82
REMARK   37  A    between atoms: _85  and  _87
REMARK   38  A    between atoms: _87  and  _88
REMARK   39  A    between atoms: _87  and  _90
REMARK   40  A    between atoms: _90  and  _91
REMARK   41  A    between atoms: _94  and  _96
REMARK   42  A    between atoms: _96  and  _97
REMARK   43  A    between atoms: _96  and  _99
REMARK   44  A    between atoms: _99  and  _100
REMARK   45  A    between atoms: _105  and  _107
REMARK   46  A    between atoms: _107  and  _108
REMARK   47  A    between atoms: _107  and  _110
REMARK   48  A    between atoms: _110  and  _111
REMARK   49  A    between atoms: _116  and  _118
REMARK   50  A    between atoms: _118  and  _119
REMARK   51  A    between atoms: _118  and  _121
REMARK   52  A    between atoms: _124  and  _126
REMARK   53  A    between atoms: _126  and  _127
REMARK   54  A    between atoms: _126  and  _129
REMARK   55  A    between atoms: _129  and  _130
REMARK   56  A    between atoms: _130  and  _131
REMARK   57  A    between atoms: _136  and  _138
REMARK   58  A    between atoms: _138  and  _139
REMARK   59  A    between atoms: _138  and  _141
REMARK   60  A    between atoms: _141  and  _142
REMARK   61  A    between atoms: _145  and  _147
REMARK   62  A    between atoms: _147  and  _148
REMARK   63  A    between atoms: _151  and  _153
REMARK   64  A    between atoms: _153  and  _154
REMARK   65  A    between atoms: _153  and  _156
REMARK   66  A    between atoms: _159  and  _161
REMARK   67  A    between atoms: _161  and  _162
REMARK   68  A    between atoms: _161  and  _164
REMARK   69  A    between atoms: _164  and  _165
REMARK   70  A    between atoms: _165  and  _166
REMARK   71  A    between atoms: _169  and  _171
REMARK   72  A    between atoms: _171  and  _172
REMARK   73  A    between atoms: _175  and  _177
REMARK   74  A    between atoms: _177  and  _178
REMARK   75  A    between atoms: _177  and  _180
REMARK   76  A    between atoms: _180  and  _181
REMARK   77  A    between atoms: _181  and  _182
REMARK   78  A    between atoms: _184  and  _186
REMARK   79  A    between atoms: _186  and  _187
REMARK   80  A    between atoms: _186  and  _189
REMARK   81  A    between atoms: _189  and  _190
REMARK   82  A    between atoms: _196  and  _198
REMARK   83  A    between atoms: _198  and  _199
REMARK   84  A    between atoms: _198  and  _201
REMARK   85  A    between atoms: _201  and  _202
REMARK   86  A    between atoms: _205  and  _207
REMARK   87  A    between atoms: _207  and  _208
REMARK   88  A    between atoms: _207  and  _210
REMARK   89  A    between atoms: _210  and  _211
REMARK   90  A    between atoms: _211  and  _212
REMARK   91  A    between atoms: _212  and  _213
REMARK   92  A    between atoms: _222  and  _224
REMARK   93  A    between atoms: _224  and  _225
REMARK   94  A    between atoms: _224  and  _227
REMARK   95  A    between atoms: _227  and  _228
REMARK   96  A    between atoms: _230  and  _232
REMARK   97  A    between atoms: _232  and  _233
REMARK   98  A    between atoms: _236  and  _238
REMARK   99  A    between atoms: _238  and  _239
REMARK  100  A    between atoms: _238  and  _241
REMARK  101  A    between atoms: _241  and  _242
REMARK  102  A    between atoms: _245  and  _247
REMARK  103  A    between atoms: _247  and  _248
REMARK  104  A    between atoms: _247  and  _250
REMARK  105  A    between atoms: _250  and  _251
REMARK  106  A    between atoms: _257  and  _259
REMARK  107  A    between atoms: _259  and  _260
REMARK  108  A    between atoms: _259  and  _262
REMARK  109  A    between atoms: _262  and  _263
REMARK  110  A    between atoms: _266  and  _268
REMARK  111  A    between atoms: _268  and  _269
REMARK  112  A    between atoms: _268  and  _271
REMARK  113  A    between atoms: _271  and  _272
REMARK  114  A    between atoms: _272  and  _273
REMARK  115  A    between atoms: _273  and  _274
REMARK  116  A    between atoms: _283  and  _285
REMARK  117  A    between atoms: _285  and  _286
REMARK  118  A    between atoms: _285  and  _288
REMARK  119  A    between atoms: _288  and  _289
REMARK  120  A    between atoms: _292  and  _294
REMARK  121  A    between atoms: _294  and  _295
REMARK  122  A    between atoms: _294  and  _297
REMARK  123  A    between atoms: _297  and  _298
REMARK  124  A    between atoms: _298  and  _299
REMARK  125  A    between atoms: _299  and  _300
REMARK  126  A    between atoms: _309  and  _311
REMARK  127  A    between atoms: _311  and  _312
REMARK  128  A    between atoms: _311  and  _314
REMARK  129  A    between atoms: _314  and  _315
REMARK  130  A    between atoms: _317  and  _319
REMARK  131  A    between atoms: _319  and  _320
REMARK  132  A    between atoms: _319  and  _322
REMARK  133  A    between atoms: _322  and  _323
REMARK  134  A    between atoms: _326  and  _328
REMARK  135  A    between atoms: _328  and  _329
REMARK  136  A    between atoms: _328  and  _331
REMARK  137  A    between atoms: _331  and  _332
REMARK  138  A    between atoms: _334  and  _336
REMARK  139  A    between atoms: _336  and  _337
REMARK  140  A    between atoms: _336  and  _339
REMARK  141  A    between atoms: _339  and  _340
REMARK  142  A    between atoms: _343  and  _345
REMARK  143  A    between atoms: _345  and  _346
REMARK  144  A    between atoms: _345  and  _348
REMARK  145  A    between atoms: _348  and  _349
REMARK  146  A    between atoms: _349  and  _350
REMARK  147  A    between atoms: _353  and  _355
REMARK  148  A    between atoms: _355  and  _356
REMARK  149  A    between atoms: _355  and  _358
REMARK  150  A    between atoms: _358  and  _359
REMARK  151  A    between atoms: _364  and  _365
REMARK  152  A    between atoms: _367  and  _369
REMARK  153  A    between atoms: _369  and  _370
REMARK  154  A    between atoms: _369  and  _372
REMARK  155  A    between atoms: _372  and  _373
REMARK  156  A    between atoms: _376  and  _378
REMARK  157  A    between atoms: _378  and  _379
REMARK  158  A    between atoms: _378  and  _381
REMARK  159  A    between atoms: _381  and  _382
REMARK  160  A    between atoms: _386  and  _387
REMARK  161  A    between atoms: _392  and  _394
REMARK  162  A    between atoms: _394  and  _395
REMARK  163  A    between atoms: _394  and  _397
REMARK  164  A    between atoms: _397  and  _398
REMARK  165  A    between atoms: _398  and  _399
REMARK  166  A    between atoms: _401  and  _403
REMARK  167  A    between atoms: _403  and  _404
REMARK  168  A    between atoms: _403  and  _406
REMARK  169  A    between atoms: _406  and  _407
REMARK  170  A    between atoms: _413  and  _415
REMARK  171  A    between atoms: _415  and  _416
REMARK  172  A    between atoms: _415  and  _418
REMARK  173  A    between atoms: _418  and  _419
REMARK  174  A    between atoms: _424  and  _425
REMARK  175  A    between atoms: _427  and  _429
REMARK  176  A    between atoms: _429  and  _430
REMARK  177  A    between atoms: _429  and  _432
REMARK  178  A    between atoms: _432  and  _433
REMARK  179  A    between atoms: _438  and  _440
REMARK  180  A    between atoms: _440  and  _441
REMARK  181  A    between atoms: _440  and  _443
REMARK  182  A    between atoms: _443  and  _444
REMARK  183  A    between atoms: _449  and  _451
REMARK  184  A    between atoms: _451  and  _452
REMARK  185  A    between atoms: _451  and  _454
REMARK  186  A    between atoms: _454  and  _455
REMARK  187  A    between atoms: _460  and  _462
REMARK  188  A    between atoms: _462  and  _463
REMARK  189  A    between atoms: _462  and  _465
REMARK  190  A    between atoms: _465  and  _466
REMARK  191  A    between atoms: _471  and  _473
REMARK  192  A    between atoms: _473  and  _474
REMARK  193  A    between atoms: _477  and  _479
REMARK  194  A    between atoms: _479  and  _480
REMARK  195  A    between atoms: _479  and  _482
REMARK  196  A    between atoms: _482  and  _483
REMARK  197  A    between atoms: _483  and  _484
REMARK  198  A    between atoms: _487  and  _489
REMARK  199  A    between atoms: _489  and  _490
REMARK  200  A    between atoms: _489  and  _492
REMARK  201  A    between atoms: _492  and  _493
REMARK  202  A    between atoms: _493  and  _494
REMARK  203  A    between atoms: _496  and  _498
REMARK  204  A    between atoms: _498  and  _499
REMARK  205  A    between atoms: _498  and  _501
REMARK  206  A    between atoms: _501  and  _502
REMARK  207  A    between atoms: _505  and  _507
REMARK  208  A    between atoms: _507  and  _508
REMARK  209  A    between atoms: _507  and  _510
REMARK  210  A    between atoms: _510  and  _511
REMARK  211  A    between atoms: _511  and  _512
REMARK  212  A    between atoms: _514  and  _516
REMARK  213  A    between atoms: _516  and  _517
REMARK  214  A    between atoms: _516  and  _519
REMARK  215  A    between atoms: _519  and  _520
REMARK  216  A    between atoms: _522  and  _524
REMARK  217  A    between atoms: _524  and  _525
REMARK  218  A    between atoms: _524  and  _527
REMARK  219  A    between atoms: _527  and  _528
REMARK  220  A    between atoms: _538  and  _540
REMARK  221  A    between atoms: _540  and  _541
REMARK  222  A    between atoms: _540  and  _543
REMARK  223  A    between atoms: _543  and  _544
REMARK  224  A    between atoms: _544  and  _545
REMARK  225  A    between atoms: _545  and  _546
REMARK  226  A    between atoms: _555  and  _557
REMARK  227  A    between atoms: _557  and  _558
REMARK  228  A    between atoms: _557  and  _560
REMARK  229  A    between atoms: _563  and  _565
REMARK  230  A    between atoms: _565  and  _566
REMARK  231  A    between atoms: _565  and  _568
REMARK  232  A    between atoms: _568  and  _569
REMARK  233  A    between atoms: _569  and  _570
REMARK  234  A    between atoms: _573  and  _575
REMARK  235  A    between atoms: _575  and  _576
REMARK  236  A    between atoms: _575  and  _578
REMARK  237  A    between atoms: _578  and  _579
REMARK  238  A    between atoms: _582  and  _584
REMARK  239  A    between atoms: _584  and  _585
REMARK  240  A    between atoms: _584  and  _587
REMARK  241  A    between atoms: _587  and  _588
REMARK  242  A    between atoms: _591  and  _593
REMARK  243  A    between atoms: _593  and  _594
REMARK  244  A    between atoms: _593  and  _596
REMARK  245  A    between atoms: _596  and  _597
REMARK                            x       y       z     vdW  Elec       q    Type
REMARK                         _______ _______ _______ _____ _____    ______ ____
ROOT
ATOM      1  CA  LEU A   1       6.554   0.052 -24.858  0.00  0.00    +0.133 C 
ENDROOT
BRANCH   1   2
ATOM      2  N   LEU A   1       5.079  -0.008 -24.916  0.00  0.00    -0.239 NA
ATOM      3  H   LEU A   1       4.502   0.525 -24.234  0.00  0.00    +0.142 HD
ENDBRANCH   1   2
BRANCH   1   4
ATOM      4  C   LEU A   1       7.133  -1.325 -24.997  0.00  0.00    +0.224 C 
ATOM      5  O   LEU A   1       8.128  -1.578 -25.699  0.00  0.00    -0.287 OA
ENDBRANCH   1   4
BRANCH   1   6
ATOM      6  CB  LEU A   1       6.976   0.619 -23.514  0.00  0.00    +0.025 C 
BRANCH   6   7
ATOM      7  CG  LEU A   1       7.358   2.087 -23.324  0.00  0.00    +0.002 C 
ATOM      8  CD2 LEU A   1       6.691   2.883 -22.156  0.00  0.00    +0.000 C 
ATOM      9  CD1 LEU A   1       7.450   2.904 -24.643  0.00  0.00    +0.000 C 
ENDBRANCH   6   7
ENDBRANCH   1   6
TORSDOF 4
REMARK  Name = ../refined-set-2016/4oiv/4oiv_pocket.pdb
REMARK  245 active torsions:
REMARK  status: ('A' for Active; 'I' for Inactive)
REMARK    1  A    between atoms: _1  and  _3
REMARK    2  A    between atoms: _3  and  _4
REMARK    3  A    between atoms: _3  and  _6
REMARK    4  A    between atoms: _6  and  _7
REMARK    5  A    between atoms: _12  and  _14
REMARK    6  A    between atoms: _14  and  _15
REMARK    7  A    between atoms: _14  and  _17
REMARK    8  A    between atoms: _17  and  _18
REMARK    9  A    between atoms: _24  and  _26
REMARK   10  A    between atoms: _26  and  _27
REMARK   11  A    between atoms: _26  and  _29
REMARK   12  A    between atoms: _29  and  _30
REMARK   13  A    between atoms: _33  and  _35
REMARK   14  A    between atoms: _35  and  _36
REMARK   15  A    between atoms: _35  and  _38
REMARK   16  A    between atoms: _38  and  _39
REMARK   17  A    between atoms: _42  and  _44
REMARK   18  A    between atoms: _44  and  _45
REMARK   19  A    between atoms: _44  and  _47
REMARK   20  A    between atoms: _47  and  _48
REMARK   21  A    between atoms: _51  and  _53
REMARK   22  A    between atoms: _53  and  _54
REMARK   23  A    between atoms: _53  and  _56
REMARK   24  A    between atoms: _56  and  _57
REMARK   25  A    between atoms: _60  and  _62
REMARK   26  A    between atoms: _62  and  _63
REMARK   27  A    between atoms: _62  and  _65
REMARK   28  A    between atoms: _65  and  _66
REMARK   29  A    between atoms: _66  and  _67
REMARK   30  A    between atoms: _70  and  _72
REMARK   31  A    between atoms: _72  and  _73
REMARK   32  A    between atoms: _72  and  _75
REMARK   33  A    between atoms: _75  and  _76
REMARK   34  A    between atoms: _76  and  _77
REMARK   35  A    between atoms: _79  and  _81
REMARK   36  A    between atoms: _81  and  _82
REMARK   37  A    between atoms: _85  and  _87
REMARK   38  A    between atoms: _87  and  _88
REMARK   39  A    between atoms: _87  and  _90
REMARK   40  A    between atoms: _90  and  _91
REMARK   41  A    between atoms: _94  and  _96
REMARK   42  A    between atoms: _96  and  _97
REMARK   43  A    between atoms: _96  and  _99
REMARK   44  A    between atoms: _99  and  _100
REMARK   45  A    between atoms: _105  and  _107
REMARK   46  A    between atoms: _107  and  _108
REMARK   47  A    between atoms: _107  and  _110
REMARK   48  A    between atoms: _110  and  _111
REMARK   49  A    between atoms: _116  and  _118
REMARK   50  A    between atoms: _118  and  _119
REMARK   51  A    between atoms: _118  and  _121
REMARK   52  A    between atoms: _124  and  _126
REMARK   53  A    between atoms: _126  and  _127
REMARK   54  A    between atoms: _126  and  _129
REMARK   55  A    between atoms: _129  and  _130
REMARK   56  A    between atoms: _130  and  _131
REMARK   57  A    between atoms: _136  and  _138
REMARK   58  A    between atoms: _138  and  _139
REMARK   59  A    between atoms: _138  and  _141
REMARK   60  A    between atoms: _141  and  _142
REMARK   61  A    between atoms: _145  and  _147
REMARK   62  A    between atoms: _147  and  _148
REMARK   63  A    between atoms: _151  and  _153
REMARK   64  A    between atoms: _153  and  _154
REMARK   65  A    between atoms: _153  and  _156
REMARK   66  A    between atoms: _159  and  _161
REMARK   67  A    between atoms: _161  and  _162
REMARK   68  A    between atoms: _161  and  _164
REMARK   69  A    between atoms: _164  and  _165
REMARK   70  A    between atoms: _165  and  _166
REMARK   71  A    between atoms: _169  and  _171
REMARK   72  A    between atoms: _171  and  _172
REMARK   73  A    between atoms: _175  and  _177
REMARK   74  A    between atoms: _177  and  _178
REMARK   75  A    between atoms: _177  and  _180
REMARK   76  A    between atoms: _180  and  _181
REMARK   77  A    between atoms: _181  and  _182
REMARK   78  A    between atoms: _184  and  _186
REMARK   79  A    between atoms: _186  and  _187
REMARK   80  A    between atoms: _186  and  _189
REMARK   81  A    between atoms: _189  and  _190
REMARK   82  A    between atoms: _196  and  _198
REMARK   83  A    between atoms: _198  and  _199
REMARK   84  A    between atoms: _198  and  _201
REMARK   85  A    between atoms: _201  and  _202
REMARK   86  A    between atoms: _205  and  _207
REMARK   87  A    between atoms: _207  and  _208
REMARK   88  A    between atoms: _207  and  _210
REMARK   89  A    between atoms: _210  and  _211
REMARK   90  A    between atoms: _211  and  _212
REMARK   91  A    between atoms: _212  and  _213
REMARK   92  A    between atoms: _222  and  _224
REMARK   93  A    between atoms: _224  and  _225
REMARK   94  A    between atoms: _224  and  _227
REMARK   95  A    between atoms: _227  and  _228
REMARK   96  A    between atoms: _230  and  _232
REMARK   97  A    between atoms: _232  and  _233
REMARK   98  A    between atoms: _236  and  _238
REMARK   99  A    between atoms: _238  and  _239
REMARK  100  A    between atoms: _238  and  _241
REMARK  101  A    between atoms: _241  and  _242
REMARK  102  A    between atoms: _245  and  _247
REMARK  103  A    between atoms: _247  and  _248
REMARK  104  A    between atoms: _247  and  _250
REMARK  105  A    between atoms: _250  and  _251
REMARK  106  A    between atoms: _257  and  _259
REMARK  107  A    between atoms: _259  and  _260
REMARK  108  A    between atoms: _259  and  _262
REMARK  109  A    between atoms: _262  and  _263
REMARK  110  A    between atoms: _266  and  _268
REMARK  111  A    between atoms: _268  and  _269
REMARK  112  A    between atoms: _268  and  _271
REMARK  113  A    between atoms: _271  and  _272
REMARK  114  A    between atoms: _272  and  _273
REMARK  115  A    between atoms: _273  and  _274
REMARK  116  A    between atoms: _283  and  _285
REMARK  117  A    between atoms: _285  and  _286
REMARK  118  A    between atoms: _285  and  _288
REMARK  119  A    between atoms: _288  and  _289
REMARK  120  A    between atoms: _292  and  _294
REMARK  121  A    between atoms: _294  and  _295
REMARK  122  A    between atoms: _294  and  _297
REMARK  123  A    between atoms: _297  and  _298
REMARK  124  A    between atoms: _298  and  _299
REMARK  125  A    between atoms: _299  and  _300
REMARK  126  A    between atoms: _309  and  _311
REMARK  127  A    between atoms: _311  and  _312
REMARK  128  A    between atoms: _311  and  _314
REMARK  129  A    between atoms: _314  and  _315
REMARK  130  A    between atoms: _317  and  _319
REMARK  131  A    between atoms: _319  and  _320
REMARK  132  A    between atoms: _319  and  _322
REMARK  133  A    between atoms: _322  and  _323
REMARK  134  A    between atoms: _326  and  _328
REMARK  135  A    between atoms: _328  and  _329
REMARK  136  A    between atoms: _328  and  _331
REMARK  137  A    between atoms: _331  and  _332
REMARK  138  A    between atoms: _334  and  _336
REMARK  139  A    between atoms: _336  and  _337
REMARK  140  A    between atoms: _336  and  _339
REMARK  141  A    between atoms: _339  and  _340
REMARK  142  A    between atoms: _343  and  _345
REMARK  143  A    between atoms: _345  and  _346
REMARK  144  A    between atoms: _345  and  _348
REMARK  145  A    between atoms: _348  and  _349
REMARK  146  A    between atoms: _349  and  _350
REMARK  147  A    between atoms: _353  and  _355
REMARK  148  A    between atoms: _355  and  _356
REMARK  149  A    between atoms: _355  and  _358
REMARK  150  A    between atoms: _358  and  _359
REMARK  151  A    between atoms: _364  and  _365
REMARK  152  A    between atoms: _367  and  _369
REMARK  153  A    between atoms: _369  and  _370
REMARK  154  A    between atoms: _369  and  _372
REMARK  155  A    between atoms: _372  and  _373
REMARK  156  A    between atoms: _376  and  _378
REMARK  157  A    between atoms: _378  and  _379
REMARK  158  A    between atoms: _378  and  _381
REMARK  159  A    between atoms: _381  and  _382
REMARK  160  A    between atoms: _386  and  _387
REMARK  161  A    between atoms: _392  and  _394
REMARK  162  A    between atoms: _394  and  _395
REMARK  163  A    between atoms: _394  and  _397
REMARK  164  A    between atoms: _397  and  _398
REMARK  165  A    between atoms: _398  and  _399
REMARK  166  A    between atoms: _401  and  _403
REMARK  167  A    between atoms: _403  and  _404
REMARK  168  A    between atoms: _403  and  _406
REMARK  169  A    between atoms: _406  and  _407
REMARK  170  A    between atoms: _413  and  _415
REMARK  171  A    between atoms: _415  and  _416
REMARK  172  A    between atoms: _415  and  _418
REMARK  173  A    between atoms: _418  and  _419
REMARK  174  A    between atoms: _424  and  _425
REMARK  175  A    between atoms: _427  and  _429
REMARK  176  A    between atoms: _429  and  _430
REMARK  177  A    between atoms: _429  and  _432
REMARK  178  A    between atoms: _432  and  _433
REMARK  179  A    between atoms: _438  and  _440
REMARK  180  A    between atoms: _440  and  _441
REMARK  181  A    between atoms: _440  and  _443
REMARK  182  A    between atoms: _443  and  _444
REMARK  183  A    between atoms: _449  and  _451
REMARK  184  A    between atoms: _451  and  _452
REMARK  185  A    between atoms: _451  and  _454
REMARK  186  A    between atoms: _454  and  _455
REMARK  187  A    between atoms: _460  and  _462
REMARK  188  A    between atoms: _462  and  _463
REMARK  189  A    between atoms: _462  and  _465
REMARK  190  A    between atoms: _465  and  _466
REMARK  191  A    between atoms: _471  and  _473
REMARK  192  A    between atoms: _473  and  _474
REMARK  193  A    between atoms: _477  and  _479
REMARK  194  A    between atoms: _479  and  _480
REMARK  195  A    between atoms: _479  and  _482
REMARK  196  A    between atoms: _482  and  _483
REMARK  197  A    between atoms: _483  and  _484
REMARK  198  A    between atoms: _487  and  _489
REMARK  199  A    between atoms: _489  and  _490
REMARK  200  A    between atoms: _489  and  _492
REMARK  201  A    between atoms: _492  and  _493
REMARK  202  A    between atoms: _493  and  _494
REMARK  203  A    between atoms: _496  and  _498
REMARK  204  A    between atoms: _498  and  _499
REMARK  205  A    between atoms: _498  and  _501
REMARK  206  A    between atoms: _501  and  _502
REMARK  207  A    between atoms: _505  and  _507
REMARK  208  A    between atoms: _507  and  _508
REMARK  209  A    between atoms: _507  and  _510
REMARK  210  A    between atoms: _510  and  _511
REMARK  211  A    between atoms: _511  and  _512
REMARK  212  A    between atoms: _514  and  _516
REMARK  213  A    between atoms: _516  and  _517
REMARK  214  A    between atoms: _516  and  _519
REMARK  215  A    between atoms: _519  and  _520
REMARK  216  A    between atoms: _522  and  _524
REMARK  217  A    between atoms: _524  and  _525
REMARK  218  A    between atoms: _524  and  _527
REMARK  219  A    between atoms: _527  and  _528
REMARK  220  A    between atoms: _538  and  _540
REMARK  221  A    between atoms: _540  and  _541
REMARK  222  A    between atoms: _540  and  _543
REMARK  223  A    between atoms: _543  and  _544
REMARK  224  A    between atoms: _544  and  _545
REMARK  225  A    between atoms: _545  and  _546
REMARK  226  A    between atoms: _555  and  _557
REMARK  227  A    between atoms: _557  and  _558
REMARK  228  A    between atoms: _557  and  _560
REMARK  229  A    between atoms: _563  and  _565
REMARK  230  A    between atoms: _565  and  _566
REMARK  231  A    between atoms: _565  and  _568
REMARK  232  A    between atoms: _568  and  _569
REMARK  233  A    between atoms: _569  and  _570
REMARK  234  A    between atoms: _573  and  _575
REMARK  235  A    between atoms: _575  and  _576
REMARK  236  A    between atoms: _575  and  _578
REMARK  237  A    between atoms: _578  and  _579
REMARK  238  A    between atoms: _582  and  _584
REMARK  239  A    between atoms: _584  and  _585
REMARK  240  A    between atoms: _584  and  _587
REMARK  241  A    between atoms: _587  and  _588
REMARK  242  A    between atoms: _591  and  _593
REMARK  243  A    between atoms: _593  and  _594
REMARK  244  A    between atoms: _593  and  _596
REMARK  245  A    between atoms: _596  and  _597
REMARK                            x       y       z     vdW  Elec       q    Type
REMARK                         _______ _______ _______ _____ _____    ______ ____
ROOT
ATOM      1  CG  TRP A   1      13.576  -0.246 -29.884  0.00  0.00    -0.002 A 
ATOM      2  CD1 TRP A   1      12.810  -1.001 -29.039  0.00  0.00    +0.068 A 
ATOM      3  NE1 TRP A   1      12.147  -0.190 -28.145  0.00  0.00    -0.352 N 
ATOM      4  HE1 TRP A   1      11.495  -0.514 -27.402  0.00  0.00    +0.166 HD
ATOM      5  CE2 TRP A   1      12.486   1.112 -28.394  0.00  0.00    +0.056 A 
ATOM      6  CZ2 TRP A   1      12.058   2.292 -27.750  0.00  0.00    +0.017 A 
ATOM      7  CH2 TRP A   1      12.549   3.477 -28.213  0.00  0.00    +0.001 A 
ATOM      8  CZ3 TRP A   1      13.457   3.538 -29.282  0.00  0.00    +0.000 A 
ATOM      9  CE3 TRP A   1      13.873   2.344 -29.954  0.00  0.00    +0.001 A 
ATOM     10  CD2 TRP A   1      13.372   1.117 -29.488  0.00  0.00    +0.013 A 
ENDROOT
BRANCH   1  11
ATOM     11  CB  TRP A   1      14.438  -0.736 -31.074  0.00  0.00    +0.053 C 
BRANCH  11  12
ATOM     12  CA  TRP A   1      13.596  -0.926 -32.383  0.00  0.00    +0.137 C 
BRANCH  12  13
ATOM     13  N   TRP A   1      12.564  -1.956 -32.229  0.00  0.00    -0.239 NA
ATOM     14  H   TRP A   1      12.836  -2.892 -31.867  0.00  0.00    +0.142 HD
ENDBRANCH  12  13
BRANCH  12  15
ATOM     15  C   TRP A   1      14.489  -1.326 -33.565  0.00  0.00    +0.224 C 
ATOM     16  O   TRP A   1      15.241  -0.479 -34.074  0.00  0.00    -0.287 OA
ENDBRANCH  12  15
ENDBRANCH  11  12
ENDBRANCH   1  11
TORSDOF 4
REMARK  Name = ../refined-set-2016/4oiv/4oiv_pocket.pdb
REMARK  245 active torsions:
REMARK  status: ('A' for Active; 'I' for Inactive)
REMARK    1  A    between atoms: _1  and  _3
REMARK    2  A    between atoms: _3  and  _4
REMARK    3  A    between atoms: _3  and  _6
REMARK    4  A    between atoms: _6  and  _7
REMARK    5  A    between atoms: _12  and  _14
REMARK    6  A    between atoms: _14  and  _15
REMARK    7  A    between atoms: _14  and  _17
REMARK    8  A    between atoms: _17  and  _18
REMARK    9  A    between atoms: _24  and  _26
REMARK   10  A    between atoms: _26  and  _27
REMARK   11  A    between atoms: _26  and  _29
REMARK   12  A    between atoms: _29  and  _30
REMARK   13  A    between atoms: _33  and  _35
REMARK   14  A    between atoms: _35  and  _36
REMARK   15  A    between atoms: _35  and  _38
REMARK   16  A    between atoms: _38  and  _39
REMARK   17  A    between atoms: _42  and  _44
REMARK   18  A    between atoms: _44  and  _45
REMARK   19  A    between atoms: _44  and  _47
REMARK   20  A    between atoms: _47  and  _48
REMARK   21  A    between atoms: _51  and  _53
REMARK   22  A    between atoms: _53  and  _54
REMARK   23  A    between atoms: _53  and  _56
REMARK   24  A    between atoms: _56  and  _57
REMARK   25  A    between atoms: _60  and  _62
REMARK   26  A    between atoms: _62  and  _63
REMARK   27  A    between atoms: _62  and  _65
REMARK   28  A    between atoms: _65  and  _66
REMARK   29  A    between atoms: _66  and  _67
REMARK   30  A    between atoms: _70  and  _72
REMARK   31  A    between atoms: _72  and  _73
REMARK   32  A    between atoms: _72  and  _75
REMARK   33  A    between atoms: _75  and  _76
REMARK   34  A    between atoms: _76  and  _77
REMARK   35  A    between atoms: _79  and  _81
REMARK   36  A    between atoms: _81  and  _82
REMARK   37  A    between atoms: _85  and  _87
REMARK   38  A    between atoms: _87  and  _88
REMARK   39  A    between atoms: _87  and  _90
REMARK   40  A    between atoms: _90  and  _91
REMARK   41  A    between atoms: _94  and  _96
REMARK   42  A    between atoms: _96  and  _97
REMARK   43  A    between atoms: _96  and  _99
REMARK   44  A    between atoms: _99  and  _100
REMARK   45  A    between atoms: _105  and  _107
REMARK   46  A    between atoms: _107  and  _108
REMARK   47  A    between atoms: _107  and  _110
REMARK   48  A    between atoms: _110  and  _111
REMARK   49  A    between atoms: _116  and  _118
REMARK   50  A    between atoms: _118  and  _119
REMARK   51  A    between atoms: _118  and  _121
REMARK   52  A    between atoms: _124  and  _126
REMARK   53  A    between atoms: _126  and  _127
REMARK   54  A    between atoms: _126  and  _129
REMARK   55  A    between atoms: _129  and  _130
REMARK   56  A    between atoms: _130  and  _131
REMARK   57  A    between atoms: _136  and  _138
REMARK   58  A    between atoms: _138  and  _139
REMARK   59  A    between atoms: _138  and  _141
REMARK   60  A    between atoms: _141  and  _142
REMARK   61  A    between atoms: _145  and  _147
REMARK   62  A    between atoms: _147  and  _148
REMARK   63  A    between atoms: _151  and  _153
REMARK   64  A    between atoms: _153  and  _154
REMARK   65  A    between atoms: _153  and  _156
REMARK   66  A    between atoms: _159  and  _161
REMARK   67  A    between atoms: _161  and  _162
REMARK   68  A    between atoms: _161  and  _164
REMARK   69  A    between atoms: _164  and  _165
REMARK   70  A    between atoms: _165  and  _166
REMARK   71  A    between atoms: _169  and  _171
REMARK   72  A    between atoms: _171  and  _172
REMARK   73  A    between atoms: _175  and  _177
REMARK   74  A    between atoms: _177  and  _178
REMARK   75  A    between atoms: _177  and  _180
REMARK   76  A    between atoms: _180  and  _181
REMARK   77  A    between atoms: _181  and  _182
REMARK   78  A    between atoms: _184  and  _186
REMARK   79  A    between atoms: _186  and  _187
REMARK   80  A    between atoms: _186  and  _189
REMARK   81  A    between atoms: _189  and  _190
REMARK   82  A    between atoms: _196  and  _198
REMARK   83  A    between atoms: _198  and  _199
REMARK   84  A    between atoms: _198  and  _201
REMARK   85  A    between atoms: _201  and  _202
REMARK   86  A    between atoms: _205  and  _207
REMARK   87  A    between atoms: _207  and  _208
REMARK   88  A    between atoms: _207  and  _210
REMARK   89  A    between atoms: _210  and  _211
REMARK   90  A    between atoms: _211  and  _212
REMARK   91  A    between atoms: _212  and  _213
REMARK   92  A    between atoms: _222  and  _224
REMARK   93  A    between atoms: _224  and  _225
REMARK   94  A    between atoms: _224  and  _227
REMARK   95  A    between atoms: _227  and  _228
REMARK   96  A    between atoms: _230  and  _232
REMARK   97  A    between atoms: _232  and  _233
REMARK   98  A    between atoms: _236  and  _238
REMARK   99  A    between atoms: _238  and  _239
REMARK  100  A    between atoms: _238  and  _241
REMARK  101  A    between atoms: _241  and  _242
REMARK  102  A    between atoms: _245  and  _247
REMARK  103  A    between atoms: _247  and  _248
REMARK  104  A    between atoms: _247  and  _250
REMARK  105  A    between atoms: _250  and  _251
REMARK  106  A    between atoms: _257  and  _259
REMARK  107  A    between atoms: _259  and  _260
REMARK  108  A    between atoms: _259  and  _262
REMARK  109  A    between atoms: _262  and  _263
REMARK  110  A    between atoms: _266  and  _268
REMARK  111  A    between atoms: _268  and  _269
REMARK  112  A    between atoms: _268  and  _271
REMARK  113  A    between atoms: _271  and  _272
REMARK  114  A    between atoms: _272  and  _273
REMARK  115  A    between atoms: _273  and  _274
REMARK  116  A    between atoms: _283  and  _285
REMARK  117  A    between atoms: _285  and  _286
REMARK  118  A    between atoms: _285  and  _288
REMARK  119  A    between atoms: _288  and  _289
REMARK  120  A    between atoms: _292  and  _294
REMARK  121  A    between atoms: _294  and  _295
REMARK  122  A    between atoms: _294  and  _297
REMARK  123  A    between atoms: _297  and  _298
REMARK  124  A    between atoms: _298  and  _299
REMARK  125  A    between atoms: _299  and  _300
REMARK  126  A    between atoms: _309  and  _311
REMARK  127  A    between atoms: _311  and  _312
REMARK  128  A    between atoms: _311  and  _314
REMARK  129  A    between atoms: _314  and  _315
REMARK  130  A    between atoms: _317  and  _319
REMARK  131  A    between atoms: _319  and  _320
REMARK  132  A    between atoms: _319  and  _322
REMARK  133  A    between atoms: _322  and  _323
REMARK  134  A    between atoms: _326  and  _328
REMARK  135  A    between atoms: _328  and  _329
REMARK  136  A    between atoms: _328  and  _331
REMARK  137  A    between atoms: _331  and  _332
REMARK  138  A    between atoms: _334  and  _336
REMARK  139  A    between atoms: _336  and  _337
REMARK  140  A    between atoms: _336  and  _339
REMARK  141  A    between atoms: _339  and  _340
REMARK  142  A    between atoms: _343  and  _345
REMARK  143  A    between atoms: _345  and  _346
REMARK  144  A    between atoms: _345  and  _348
REMARK  145  A    between atoms: _348  and  _349
REMARK  146  A    between atoms: _349  and  _350
REMARK  147  A    between atoms: _353  and  _355
REMARK  148  A    between atoms: _355  and  _356
REMARK  149  A    between atoms: _355  and  _358
REMARK  150  A    between atoms: _358  and  _359
REMARK  151  A    between atoms: _364  and  _365
REMARK  152  A    between atoms: _367  and  _369
REMARK  153  A    between atoms: _369  and  _370
REMARK  154  A    between atoms: _369  and  _372
REMARK  155  A    between atoms: _372  and  _373
REMARK  156  A    between atoms: _376  and  _378
REMARK  157  A    between atoms: _378  and  _379
REMARK  158  A    between atoms: _378  and  _381
REMARK  159  A    between atoms: _381  and  _382
REMARK  160  A    between atoms: _386  and  _387
REMARK  161  A    between atoms: _392  and  _394
REMARK  162  A    between atoms: _394  and  _395
REMARK  163  A    between atoms: _394  and  _397
REMARK  164  A    between atoms: _397  and  _398
REMARK  165  A    between atoms: _398  and  _399
REMARK  166  A    between atoms: _401  and  _403
REMARK  167  A    between atoms: _403  and  _404
REMARK  168  A    between atoms: _403  and  _406
REMARK  169  A    between atoms: _406  and  _407
REMARK  170  A    between atoms: _413  and  _415
REMARK  171  A    between atoms: _415  and  _416
REMARK  172  A    between atoms: _415  and  _418
REMARK  173  A    between atoms: _418  and  _419
REMARK  174  A    between atoms: _424  and  _425
REMARK  175  A    between atoms: _427  and  _429
REMARK  176  A    between atoms: _429  and  _430
REMARK  177  A    between atoms: _429  and  _432
REMARK  178  A    between atoms: _432  and  _433
REMARK  179  A    between atoms: _438  and  _440
REMARK  180  A    between atoms: _440  and  _441
REMARK  181  A    between atoms: _440  and  _443
REMARK  182  A    between atoms: _443  and  _444
REMARK  183  A    between atoms: _449  and  _451
REMARK  184  A    between atoms: _451  and  _452
REMARK  185  A    between atoms: _451  and  _454
REMARK  186  A    between atoms: _454  and  _455
REMARK  187  A    between atoms: _460  and  _462
REMARK  188  A    between atoms: _462  and  _463
REMARK  189  A    between atoms: _462  and  _465
REMARK  190  A    between atoms: _465  and  _466
REMARK  191  A    between atoms: _471  and  _473
REMARK  192  A    between atoms: _473  and  _474
REMARK  193  A    between atoms: _477  and  _479
REMARK  194  A    between atoms: _479  and  _480
REMARK  195  A    between atoms: _479  and  _482
REMARK  196  A    between atoms: _482  and  _483
REMARK  197  A    between atoms: _483  and  _484
REMARK  198  A    between atoms: _487  and  _489
REMARK  199  A    between atoms: _489  and  _490
REMARK  200  A    between atoms: _489  and  _492
REMARK  201  A    between atoms: _492  and  _493
REMARK  202  A    between atoms: _493  and  _494
REMARK  203  A    between atoms: _496  and  _498
REMARK  204  A    between atoms: _498  and  _499
REMARK  205  A    between atoms: _498  and  _501
REMARK  206  A    between atoms: _501  and  _502
REMARK  207  A    between atoms: _505  and  _507
REMARK  208  A    between atoms: _507  and  _508
REMARK  209  A    between atoms: _507  and  _510
REMARK  210  A    between atoms: _510  and  _511
REMARK  211  A    between atoms: _511  and  _512
REMARK  212  A    between atoms: _514  and  _516
REMARK  213  A    between atoms: _516  and  _517
REMARK  214  A    between atoms: _516  and  _519
REMARK  215  A    between atoms: _519  and  _520
REMARK  216  A    between atoms: _522  and  _524
REMARK  217  A    between atoms: _524  and  _525
REMARK  218  A    between atoms: _524  and  _527
REMARK  219  A    between atoms: _527  and  _528
REMARK  220  A    between atoms: _538  and  _540
REMARK  221  A    between atoms: _540  and  _541
REMARK  222  A    between atoms: _540  and  _543
REMARK  223  A    between atoms: _543  and  _544
REMARK  224  A    between atoms: _544  and  _545
REMARK  225  A    between atoms: _545  and  _546
REMARK  226  A    between atoms: _555  and  _557
REMARK  227  A    between atoms: _557  and  _558
REMARK  228  A    between atoms: _557  and  _560
REMARK  229  A    between atoms: _563  and  _565
REMARK  230  A    between atoms: _565  and  _566
REMARK  231  A    between atoms: _565  and  _568
REMARK  232  A    between atoms: _568  and  _569
REMARK  233  A    between atoms: _569  and  _570
REMARK  234  A    between atoms: _573  and  _575
REMARK  235  A    between atoms: _575  and  _576
REMARK  236  A    between atoms: _575  and  _578
REMARK  237  A    between atoms: _578  and  _579
REMARK  238  A    between atoms: _582  and  _584
REMARK  239  A    between atoms: _584  and  _585
REMARK  240  A    between atoms: _584  and  _587
REMARK  241  A    between atoms: _587  and  _588
REMARK  242  A    between atoms: _591  and  _593
REMARK  243  A    between atoms: _593  and  _594
REMARK  244  A    between atoms: _593  and  _596
REMARK  245  A    between atoms: _596  and  _597
REMARK                            x       y       z     vdW  Elec       q    Type
REMARK                         _______ _______ _______ _____ _____    ______ ____
ROOT
ATOM      1  O   HOH     1       8.201  16.204 -17.627  0.00  0.00    +0.000 OA
ENDROOT
TORSDOF 0
REMARK  Name = ../refined-set-2016/4oiv/4oiv_pocket.pdb
REMARK  245 active torsions:
REMARK  status: ('A' for Active; 'I' for Inactive)
REMARK    1  A    between atoms: _1  and  _3
REMARK    2  A    between atoms: _3  and  _4
REMARK    3  A    between atoms: _3  and  _6
REMARK    4  A    between atoms: _6  and  _7
REMARK    5  A    between atoms: _12  and  _14
REMARK    6  A    between atoms: _14  and  _15
REMARK    7  A    between atoms: _14  and  _17
REMARK    8  A    between atoms: _17  and  _18
REMARK    9  A    between atoms: _24  and  _26
REMARK   10  A    between atoms: _26  and  _27
REMARK   11  A    between atoms: _26  and  _29
REMARK   12  A    between atoms: _29  and  _30
REMARK   13  A    between atoms: _33  and  _35
REMARK   14  A    between atoms: _35  and  _36
REMARK   15  A    between atoms: _35  and  _38
REMARK   16  A    between atoms: _38  and  _39
REMARK   17  A    between atoms: _42  and  _44
REMARK   18  A    between atoms: _44  and  _45
REMARK   19  A    between atoms: _44  and  _47
REMARK   20  A    between atoms: _47  and  _48
REMARK   21  A    between atoms: _51  and  _53
REMARK   22  A    between atoms: _53  and  _54
REMARK   23  A    between atoms: _53  and  _56
REMARK   24  A    between atoms: _56  and  _57
REMARK   25  A    between atoms: _60  and  _62
REMARK   26  A    between atoms: _62  and  _63
REMARK   27  A    between atoms: _62  and  _65
REMARK   28  A    between atoms: _65  and  _66
REMARK   29  A    between atoms: _66  and  _67
REMARK   30  A    between atoms: _70  and  _72
REMARK   31  A    between atoms: _72  and  _73
REMARK   32  A    between atoms: _72  and  _75
REMARK   33  A    between atoms: _75  and  _76
REMARK   34  A    between atoms: _76  and  _77
REMARK   35  A    between atoms: _79  and  _81
REMARK   36  A    between atoms: _81  and  _82
REMARK   37  A    between atoms: _85  and  _87
REMARK   38  A    between atoms: _87  and  _88
REMARK   39  A    between atoms: _87  and  _90
REMARK   40  A    between atoms: _90  and  _91
REMARK   41  A    between atoms: _94  and  _96
REMARK   42  A    between atoms: _96  and  _97
REMARK   43  A    between atoms: _96  and  _99
REMARK   44  A    between atoms: _99  and  _100
REMARK   45  A    between atoms: _105  and  _107
REMARK   46  A    between atoms: _107  and  _108
REMARK   47  A    between atoms: _107  and  _110
REMARK   48  A    between atoms: _110  and  _111
REMARK   49  A    between atoms: _116  and  _118
REMARK   50  A    between atoms: _118  and  _119
REMARK   51  A    between atoms: _118  and  _121
REMARK   52  A    between atoms: _124  and  _126
REMARK   53  A    between atoms: _126  and  _127
REMARK   54  A    between atoms: _126  and  _129
REMARK   55  A    between atoms: _129  and  _130
REMARK   56  A    between atoms: _130  and  _131
REMARK   57  A    between atoms: _136  and  _138
REMARK   58  A    between atoms: _138  and  _139
REMARK   59  A    between atoms: _138  and  _141
REMARK   60  A    between atoms: _141  and  _142
REMARK   61  A    between atoms: _145  and  _147
REMARK   62  A    between atoms: _147  and  _148
REMARK   63  A    between atoms: _151  and  _153
REMARK   64  A    between atoms: _153  and  _154
REMARK   65  A    between atoms: _153  and  _156
REMARK   66  A    between atoms: _159  and  _161
REMARK   67  A    between atoms: _161  and  _162
REMARK   68  A    between atoms: _161  and  _164
REMARK   69  A    between atoms: _164  and  _165
REMARK   70  A    between atoms: _165  and  _166
REMARK   71  A    between atoms: _169  and  _171
REMARK   72  A    between atoms: _171  and  _172
REMARK   73  A    between atoms: _175  and  _177
REMARK   74  A    between atoms: _177  and  _178
REMARK   75  A    between atoms: _177  and  _180
REMARK   76  A    between atoms: _180  and  _181
REMARK   77  A    between atoms: _181  and  _182
REMARK   78  A    between atoms: _184  and  _186
REMARK   79  A    between atoms: _186  and  _187
REMARK   80  A    between atoms: _186  and  _189
REMARK   81  A    between atoms: _189  and  _190
REMARK   82  A    between atoms: _196  and  _198
REMARK   83  A    between atoms: _198  and  _199
REMARK   84  A    between atoms: _198  and  _201
REMARK   85  A    between atoms: _201  and  _202
REMARK   86  A    between atoms: _205  and  _207
REMARK   87  A    between atoms: _207  and  _208
REMARK   88  A    between atoms: _207  and  _210
REMARK   89  A    between atoms: _210  and  _211
REMARK   90  A    between atoms: _211  and  _212
REMARK   91  A    between atoms: _212  and  _213
REMARK   92  A    between atoms: _222  and  _224
REMARK   93  A    between atoms: _224  and  _225
REMARK   94  A    between atoms: _224  and  _227
REMARK   95  A    between atoms: _227  and  _228
REMARK   96  A    between atoms: _230  and  _232
REMARK   97  A    between atoms: _232  and  _233
REMARK   98  A    between atoms: _236  and  _238
REMARK   99  A    between atoms: _238  and  _239
REMARK  100  A    between atoms: _238  and  _241
REMARK  101  A    between atoms: _241  and  _242
REMARK  102  A    between atoms: _245  and  _247
REMARK  103  A    between atoms: _247  and  _248
REMARK  104  A    between atoms: _247  and  _250
REMARK  105  A    between atoms: _250  and  _251
REMARK  106  A    between atoms: _257  and  _259
REMARK  107  A    between atoms: _259  and  _260
REMARK  108  A    between atoms: _259  and  _262
REMARK  109  A    between atoms: _262  and  _263
REMARK  110  A    between atoms: _266  and  _268
REMARK  111  A    between atoms: _268  and  _269
REMARK  112  A    between atoms: _268  and  _271
REMARK  113  A    between atoms: _271  and  _272
REMARK  114  A    between atoms: _272  and  _273
REMARK  115  A    between atoms: _273  and  _274
REMARK  116  A    between atoms: _283  and  _285
REMARK  117  A    between atoms: _285  and  _286
REMARK  118  A    between atoms: _285  and  _288
REMARK  119  A    between atoms: _288  and  _289
REMARK  120  A    between atoms: _292  and  _294
REMARK  121  A    between atoms: _294  and  _295
REMARK  122  A    between atoms: _294  and  _297
REMARK  123  A    between atoms: _297  and  _298
REMARK  124  A    between atoms: _298  and  _299
REMARK  125  A    between atoms: _299  and  _300
REMARK  126  A    between atoms: _309  and  _311
REMARK  127  A    between atoms: _311  and  _312
REMARK  128  A    between atoms: _311  and  _314
REMARK  129  A    between atoms: _314  and  _315
REMARK  130  A    between atoms: _317  and  _319
REMARK  131  A    between atoms: _319  and  _320
REMARK  132  A    between atoms: _319  and  _322
REMARK  133  A    between atoms: _322  and  _323
REMARK  134  A    between atoms: _326  and  _328
REMARK  135  A    between atoms: _328  and  _329
REMARK  136  A    between atoms: _328  and  _331
REMARK  137  A    between atoms: _331  and  _332
REMARK  138  A    between atoms: _334  and  _336
REMARK  139  A    between atoms: _336  and  _337
REMARK  140  A    between atoms: _336  and  _339
REMARK  141  A    between atoms: _339  and  _340
REMARK  142  A    between atoms: _343  and  _345
REMARK  143  A    between atoms: _345  and  _346
REMARK  144  A    between atoms: _345  and  _348
REMARK  145  A    between atoms: _348  and  _349
REMARK  146  A    between atoms: _349  and  _350
REMARK  147  A    between atoms: _353  and  _355
REMARK  148  A    between atoms: _355  and  _356
REMARK  149  A    between atoms: _355  and  _358
REMARK  150  A    between atoms: _358  and  _359
REMARK  151  A    between atoms: _364  and  _365
REMARK  152  A    between atoms: _367  and  _369
REMARK  153  A    between atoms: _369  and  _370
REMARK  154  A    between atoms: _369  and  _372
REMARK  155  A    between atoms: _372  and  _373
REMARK  156  A    between atoms: _376  and  _378
REMARK  157  A    between atoms: _378  and  _379
REMARK  158  A    between atoms: _378  and  _381
REMARK  159  A    between atoms: _381  and  _382
REMARK  160  A    between atoms: _386  and  _387
REMARK  161  A    between atoms: _392  and  _394
REMARK  162  A    between atoms: _394  and  _395
REMARK  163  A    between atoms: _394  and  _397
REMARK  164  A    between atoms: _397  and  _398
REMARK  165  A    between atoms: _398  and  _399
REMARK  166  A    between atoms: _401  and  _403
REMARK  167  A    between atoms: _403  and  _404
REMARK  168  A    between atoms: _403  and  _406
REMARK  169  A    between atoms: _406  and  _407
REMARK  170  A    between atoms: _413  and  _415
REMARK  171  A    between atoms: _415  and  _416
REMARK  172  A    between atoms: _415  and  _418
REMARK  173  A    between atoms: _418  and  _419
REMARK  174  A    between atoms: _424  and  _425
REMARK  175  A    between atoms: _427  and  _429
REMARK  176  A    between atoms: _429  and  _430
REMARK  177  A    between atoms: _429  and  _432
REMARK  178  A    between atoms: _432  and  _433
REMARK  179  A    between atoms: _438  and  _440
REMARK  180  A    between atoms: _440  and  _441
REMARK  181  A    between atoms: _440  and  _443
REMARK  182  A    between atoms: _443  and  _444
REMARK  183  A    between atoms: _449  and  _451
REMARK  184  A    between atoms: _451  and  _452
REMARK  185  A    between atoms: _451  and  _454
REMARK  186  A    between atoms: _454  and  _455
REMARK  187  A    between atoms: _460  and  _462
REMARK  188  A    between atoms: _462  and  _463
REMARK  189  A    between atoms: _462  and  _465
REMARK  190  A    between atoms: _465  and  _466
REMARK  191  A    between atoms: _471  and  _473
REMARK  192  A    between atoms: _473  and  _474
REMARK  193  A    between atoms: _477  and  _479
REMARK  194  A    between atoms: _479  and  _480
REMARK  195  A    between atoms: _479  and  _482
REMARK  196  A    between atoms: _482  and  _483
REMARK  197  A    between atoms: _483  and  _484
REMARK  198  A    between atoms: _487  and  _489
REMARK  199  A    between atoms: _489  and  _490
REMARK  200  A    between atoms: _489  and  _492
REMARK  201  A    between atoms: _492  and  _493
REMARK  202  A    between atoms: _493  and  _494
REMARK  203  A    between atoms: _496  and  _498
REMARK  204  A    between atoms: _498  and  _499
REMARK  205  A    between atoms: _498  and  _501
REMARK  206  A    between atoms: _501  and  _502
REMARK  207  A    between atoms: _505  and  _507
REMARK  208  A    between atoms: _507  and  _508
REMARK  209  A    between atoms: _507  and  _510
REMARK  210  A    between atoms: _510  and  _511
REMARK  211  A    between atoms: _511  and  _512
REMARK  212  A    between atoms: _514  and  _516
REMARK  213  A    between atoms: _516  and  _517
REMARK  214  A    between atoms: _516  and  _519
REMARK  215  A    between atoms: _519  and  _520
REMARK  216  A    between atoms: _522  and  _524
REMARK  217  A    between atoms: _524  and  _525
REMARK  218  A    between atoms: _524  and  _527
REMARK  219  A    between atoms: _527  and  _528
REMARK  220  A    between atoms: _538  and  _540
REMARK  221  A    between atoms: _540  and  _541
REMARK  222  A    between atoms: _540  and  _543
REMARK  223  A    between atoms: _543  and  _544
REMARK  224  A    between atoms: _544  and  _545
REMARK  225  A    between atoms: _545  and  _546
REMARK  226  A    between atoms: _555  and  _557
REMARK  227  A    between atoms: _557  and  _558
REMARK  228  A    between atoms: _557  and  _560
REMARK  229  A    between atoms: _563  and  _565
REMARK  230  A    between atoms: _565  and  _566
REMARK  231  A    between atoms: _565  and  _568
REMARK  232  A    between atoms: _568  and  _569
REMARK  233  A    between atoms: _569  and  _570
REMARK  234  A    between atoms: _573  and  _575
REMARK  235  A    between atoms: _575  and  _576
REMARK  236  A    between atoms: _575  and  _578
REMARK  237  A    between atoms: _578  and  _579
REMARK  238  A    between atoms: _582  and  _584
REMARK  239  A    between atoms: _584  and  _585
REMARK  240  A    between atoms: _584  and  _587
REMARK  241  A    between atoms: _587  and  _588
REMARK  242  A    between atoms: _591  and  _593
REMARK  243  A    between atoms: _593  and  _594
REMARK  244  A    between atoms: _593  and  _596
REMARK  245  A    between atoms: _596  and  _597
REMARK                            x       y       z     vdW  Elec       q    Type
REMARK                         _______ _______ _______ _____ _____    ______ ____
ROOT
ATOM      1  O   HOH     1       5.613  15.244 -16.511  0.00  0.00    +0.000 OA
ENDROOT
TORSDOF 0
REMARK  Name = ../refined-set-2016/4oiv/4oiv_pocket.pdb
REMARK  245 active torsions:
REMARK  status: ('A' for Active; 'I' for Inactive)
REMARK    1  A    between atoms: _1  and  _3
REMARK    2  A    between atoms: _3  and  _4
REMARK    3  A    between atoms: _3  and  _6
REMARK    4  A    between atoms: _6  and  _7
REMARK    5  A    between atoms: _12  and  _14
REMARK    6  A    between atoms: _14  and  _15
REMARK    7  A    between atoms: _14  and  _17
REMARK    8  A    between atoms: _17  and  _18
REMARK    9  A    between atoms: _24  and  _26
REMARK   10  A    between atoms: _26  and  _27
REMARK   11  A    between atoms: _26  and  _29
REMARK   12  A    between atoms: _29  and  _30
REMARK   13  A    between atoms: _33  and  _35
REMARK   14  A    between atoms: _35  and  _36
REMARK   15  A    between atoms: _35  and  _38
REMARK   16  A    between atoms: _38  and  _39
REMARK   17  A    between atoms: _42  and  _44
REMARK   18  A    between atoms: _44  and  _45
REMARK   19  A    between atoms: _44  and  _47
REMARK   20  A    between atoms: _47  and  _48
REMARK   21  A    between atoms: _51  and  _53
REMARK   22  A    between atoms: _53  and  _54
REMARK   23  A    between atoms: _53  and  _56
REMARK   24  A    between atoms: _56  and  _57
REMARK   25  A    between atoms: _60  and  _62
REMARK   26  A    between atoms: _62  and  _63
REMARK   27  A    between atoms: _62  and  _65
REMARK   28  A    between atoms: _65  and  _66
REMARK   29  A    between atoms: _66  and  _67
REMARK   30  A    between atoms: _70  and  _72
REMARK   31  A    between atoms: _72  and  _73
REMARK   32  A    between atoms: _72  and  _75
REMARK   33  A    between atoms: _75  and  _76
REMARK   34  A    between atoms: _76  and  _77
REMARK   35  A    between atoms: _79  and  _81
REMARK   36  A    between atoms: _81  and  _82
REMARK   37  A    between atoms: _85  and  _87
REMARK   38  A    between atoms: _87  and  _88
REMARK   39  A    between atoms: _87  and  _90
REMARK   40  A    between atoms: _90  and  _91
REMARK   41  A    between atoms: _94  and  _96
REMARK   42  A    between atoms: _96  and  _97
REMARK   43  A    between atoms: _96  and  _99
REMARK   44  A    between atoms: _99  and  _100
REMARK   45  A    between atoms: _105  and  _107
REMARK   46  A    between atoms: _107  and  _108
REMARK   47  A    between atoms: _107  and  _110
REMARK   48  A    between atoms: _110  and  _111
REMARK   49  A    between atoms: _116  and  _118
REMARK   50  A    between atoms: _118  and  _119
REMARK   51  A    between atoms: _118  and  _121
REMARK   52  A    between atoms: _124  and  _126
REMARK   53  A    between atoms: _126  and  _127
REMARK   54  A    between atoms: _126  and  _129
REMARK   55  A    between atoms: _129  and  _130
REMARK   56  A    between atoms: _130  and  _131
REMARK   57  A    between atoms: _136  and  _138
REMARK   58  A    between atoms: _138  and  _139
REMARK   59  A    between atoms: _138  and  _141
REMARK   60  A    between atoms: _141  and  _142
REMARK   61  A    between atoms: _145  and  _147
REMARK   62  A    between atoms: _147  and  _148
REMARK   63  A    between atoms: _151  and  _153
REMARK   64  A    between atoms: _153  and  _154
REMARK   65  A    between atoms: _153  and  _156
REMARK   66  A    between atoms: _159  and  _161
REMARK   67  A    between atoms: _161  and  _162
REMARK   68  A    between atoms: _161  and  _164
REMARK   69  A    between atoms: _164  and  _165
REMARK   70  A    between atoms: _165  and  _166
REMARK   71  A    between atoms: _169  and  _171
REMARK   72  A    between atoms: _171  and  _172
REMARK   73  A    between atoms: _175  and  _177
REMARK   74  A    between atoms: _177  and  _178
REMARK   75  A    between atoms: _177  and  _180
REMARK   76  A    between atoms: _180  and  _181
REMARK   77  A    between atoms: _181  and  _182
REMARK   78  A    between atoms: _184  and  _186
REMARK   79  A    between atoms: _186  and  _187
REMARK   80  A    between atoms: _186  and  _189
REMARK   81  A    between atoms: _189  and  _190
REMARK   82  A    between atoms: _196  and  _198
REMARK   83  A    between atoms: _198  and  _199
REMARK   84  A    between atoms: _198  and  _201
REMARK   85  A    between atoms: _201  and  _202
REMARK   86  A    between atoms: _205  and  _207
REMARK   87  A    between atoms: _207  and  _208
REMARK   88  A    between atoms: _207  and  _210
REMARK   89  A    between atoms: _210  and  _211
REMARK   90  A    between atoms: _211  and  _212
REMARK   91  A    between atoms: _212  and  _213
REMARK   92  A    between atoms: _222  and  _224
REMARK   93  A    between atoms: _224  and  _225
REMARK   94  A    between atoms: _224  and  _227
REMARK   95  A    between atoms: _227  and  _228
REMARK   96  A    between atoms: _230  and  _232
REMARK   97  A    between atoms: _232  and  _233
REMARK   98  A    between atoms: _236  and  _238
REMARK   99  A    between atoms: _238  and  _239
REMARK  100  A    between atoms: _238  and  _241
REMARK  101  A    between atoms: _241  and  _242
REMARK  102  A    between atoms: _245  and  _247
REMARK  103  A    between atoms: _247  and  _248
REMARK  104  A    between atoms: _247  and  _250
REMARK  105  A    between atoms: _250  and  _251
REMARK  106  A    between atoms: _257  and  _259
REMARK  107  A    between atoms: _259  and  _260
REMARK  108  A    between atoms: _259  and  _262
REMARK  109  A    between atoms: _262  and  _263
REMARK  110  A    between atoms: _266  and  _268
REMARK  111  A    between atoms: _268  and  _269
REMARK  112  A    between atoms: _268  and  _271
REMARK  113  A    between atoms: _271  and  _272
REMARK  114  A    between atoms: _272  and  _273
REMARK  115  A    between atoms: _273  and  _274
REMARK  116  A    between atoms: _283  and  _285
REMARK  117  A    between atoms: _285  and  _286
REMARK  118  A    between atoms: _285  and  _288
REMARK  119  A    between atoms: _288  and  _289
REMARK  120  A    between atoms: _292  and  _294
REMARK  121  A    between atoms: _294  and  _295
REMARK  122  A    between atoms: _294  and  _297
REMARK  123  A    between atoms: _297  and  _298
REMARK  124  A    between atoms: _298  and  _299
REMARK  125  A    between atoms: _299  and  _300
REMARK  126  A    between atoms: _309  and  _311
REMARK  127  A    between atoms: _311  and  _312
REMARK  128  A    between atoms: _311  and  _314
REMARK  129  A    between atoms: _314  and  _315
REMARK  130  A    between atoms: _317  and  _319
REMARK  131  A    between atoms: _319  and  _320
REMARK  132  A    between atoms: _319  and  _322
REMARK  133  A    between atoms: _322  and  _323
REMARK  134  A    between atoms: _326  and  _328
REMARK  135  A    between atoms: _328  and  _329
REMARK  136  A    between atoms: _328  and  _331
REMARK  137  A    between atoms: _331  and  _332
REMARK  138  A    between atoms: _334  and  _336
REMARK  139  A    between atoms: _336  and  _337
REMARK  140  A    between atoms: _336  and  _339
REMARK  141  A    between atoms: _339  and  _340
REMARK  142  A    between atoms: _343  and  _345
REMARK  143  A    between atoms: _345  and  _346
REMARK  144  A    between atoms: _345  and  _348
REMARK  145  A    between atoms: _348  and  _349
REMARK  146  A    between atoms: _349  and  _350
REMARK  147  A    between atoms: _353  and  _355
REMARK  148  A    between atoms: _355  and  _356
REMARK  149  A    between atoms: _355  and  _358
REMARK  150  A    between atoms: _358  and  _359
REMARK  151  A    between atoms: _364  and  _365
REMARK  152  A    between atoms: _367  and  _369
REMARK  153  A    between atoms: _369  and  _370
REMARK  154  A    between atoms: _369  and  _372
REMARK  155  A    between atoms: _372  and  _373
REMARK  156  A    between atoms: _376  and  _378
REMARK  157  A    between atoms: _378  and  _379
REMARK  158  A    between atoms: _378  and  _381
REMARK  159  A    between atoms: _381  and  _382
REMARK  160  A    between atoms: _386  and  _387
REMARK  161  A    between atoms: _392  and  _394
REMARK  162  A    between atoms: _394  and  _395
REMARK  163  A    between atoms: _394  and  _397
REMARK  164  A    between atoms: _397  and  _398
REMARK  165  A    between atoms: _398  and  _399
REMARK  166  A    between atoms: _401  and  _403
REMARK  167  A    between atoms: _403  and  _404
REMARK  168  A    between atoms: _403  and  _406
REMARK  169  A    between atoms: _406  and  _407
REMARK  170  A    between atoms: _413  and  _415
REMARK  171  A    between atoms: _415  and  _416
REMARK  172  A    between atoms: _415  and  _418
REMARK  173  A    between atoms: _418  and  _419
REMARK  174  A    between atoms: _424  and  _425
REMARK  175  A    between atoms: _427  and  _429
REMARK  176  A    between atoms: _429  and  _430
REMARK  177  A    between atoms: _429  and  _432
REMARK  178  A    between atoms: _432  and  _433
REMARK  179  A    between atoms: _438  and  _440
REMARK  180  A    between atoms: _440  and  _441
REMARK  181  A    between atoms: _440  and  _443
REMARK  182  A    between atoms: _443  and  _444
REMARK  183  A    between atoms: _449  and  _451
REMARK  184  A    between atoms: _451  and  _452
REMARK  185  A    between atoms: _451  and  _454
REMARK  186  A    between atoms: _454  and  _455
REMARK  187  A    between atoms: _460  and  _462
REMARK  188  A    between atoms: _462  and  _463
REMARK  189  A    between atoms: _462  and  _465
REMARK  190  A    between atoms: _465  and  _466
REMARK  191  A    between atoms: _471  and  _473
REMARK  192  A    between atoms: _473  and  _474
REMARK  193  A    between atoms: _477  and  _479
REMARK  194  A    between atoms: _479  and  _480
REMARK  195  A    between atoms: _479  and  _482
REMARK  196  A    between atoms: _482  and  _483
REMARK  197  A    between atoms: _483  and  _484
REMARK  198  A    between atoms: _487  and  _489
REMARK  199  A    between atoms: _489  and  _490
REMARK  200  A    between atoms: _489  and  _492
REMARK  201  A    between atoms: _492  and  _493
REMARK  202  A    between atoms: _493  and  _494
REMARK  203  A    between atoms: _496  and  _498
REMARK  204  A    between atoms: _498  and  _499
REMARK  205  A    between atoms: _498  and  _501
REMARK  206  A    between atoms: _501  and  _502
REMARK  207  A    between atoms: _505  and  _507
REMARK  208  A    between atoms: _507  and  _508
REMARK  209  A    between atoms: _507  and  _510
REMARK  210  A    between atoms: _510  and  _511
REMARK  211  A    between atoms: _511  and  _512
REMARK  212  A    between atoms: _514  and  _516
REMARK  213  A    between atoms: _516  and  _517
REMARK  214  A    between atoms: _516  and  _519
REMARK  215  A    between atoms: _519  and  _520
REMARK  216  A    between atoms: _522  and  _524
REMARK  217  A    between atoms: _524  and  _525
REMARK  218  A    between atoms: _524  and  _527
REMARK  219  A    between atoms: _527  and  _528
REMARK  220  A    between atoms: _538  and  _540
REMARK  221  A    between atoms: _540  and  _541
REMARK  222  A    between atoms: _540  and  _543
REMARK  223  A    between atoms: _543  and  _544
REMARK  224  A    between atoms: _544  and  _545
REMARK  225  A    between atoms: _545  and  _546
REMARK  226  A    between atoms: _555  and  _557
REMARK  227  A    between atoms: _557  and  _558
REMARK  228  A    between atoms: _557  and  _560
REMARK  229  A    between atoms: _563  and  _565
REMARK  230  A    between atoms: _565  and  _566
REMARK  231  A    between atoms: _565  and  _568
REMARK  232  A    between atoms: _568  and  _569
REMARK  233  A    between atoms: _569  and  _570
REMARK  234  A    between atoms: _573  and  _575
REMARK  235  A    between atoms: _575  and  _576
REMARK  236  A    between atoms: _575  and  _578
REMARK  237  A    between atoms: _578  and  _579
REMARK  238  A    between atoms: _582  and  _584
REMARK  239  A    between atoms: _584  and  _585
REMARK  240  A    between atoms: _584  and  _587
REMARK  241  A    between atoms: _587  and  _588
REMARK  242  A    between atoms: _591  and  _593
REMARK  243  A    between atoms: _593  and  _594
REMARK  244  A    between atoms: _593  and  _596
REMARK  245  A    between atoms: _596  and  _597
REMARK                            x       y       z     vdW  Elec       q    Type
REMARK                         _______ _______ _______ _____ _____    ______ ____
ROOT
ATOM      1  O   HOH     1       8.809  17.298 -15.246  0.00  0.00    +0.000 OA
ENDROOT
TORSDOF 0
REMARK  Name = ../refined-set-2016/4oiv/4oiv_pocket.pdb
REMARK  245 active torsions:
REMARK  status: ('A' for Active; 'I' for Inactive)
REMARK    1  A    between atoms: _1  and  _3
REMARK    2  A    between atoms: _3  and  _4
REMARK    3  A    between atoms: _3  and  _6
REMARK    4  A    between atoms: _6  and  _7
REMARK    5  A    between atoms: _12  and  _14
REMARK    6  A    between atoms: _14  and  _15
REMARK    7  A    between atoms: _14  and  _17
REMARK    8  A    between atoms: _17  and  _18
REMARK    9  A    between atoms: _24  and  _26
REMARK   10  A    between atoms: _26  and  _27
REMARK   11  A    between atoms: _26  and  _29
REMARK   12  A    between atoms: _29  and  _30
REMARK   13  A    between atoms: _33  and  _35
REMARK   14  A    between atoms: _35  and  _36
REMARK   15  A    between atoms: _35  and  _38
REMARK   16  A    between atoms: _38  and  _39
REMARK   17  A    between atoms: _42  and  _44
REMARK   18  A    between atoms: _44  and  _45
REMARK   19  A    between atoms: _44  and  _47
REMARK   20  A    between atoms: _47  and  _48
REMARK   21  A    between atoms: _51  and  _53
REMARK   22  A    between atoms: _53  and  _54
REMARK   23  A    between atoms: _53  and  _56
REMARK   24  A    between atoms: _56  and  _57
REMARK   25  A    between atoms: _60  and  _62
REMARK   26  A    between atoms: _62  and  _63
REMARK   27  A    between atoms: _62  and  _65
REMARK   28  A    between atoms: _65  and  _66
REMARK   29  A    between atoms: _66  and  _67
REMARK   30  A    between atoms: _70  and  _72
REMARK   31  A    between atoms: _72  and  _73
REMARK   32  A    between atoms: _72  and  _75
REMARK   33  A    between atoms: _75  and  _76
REMARK   34  A    between atoms: _76  and  _77
REMARK   35  A    between atoms: _79  and  _81
REMARK   36  A    between atoms: _81  and  _82
REMARK   37  A    between atoms: _85  and  _87
REMARK   38  A    between atoms: _87  and  _88
REMARK   39  A    between atoms: _87  and  _90
REMARK   40  A    between atoms: _90  and  _91
REMARK   41  A    between atoms: _94  and  _96
REMARK   42  A    between atoms: _96  and  _97
REMARK   43  A    between atoms: _96  and  _99
REMARK   44  A    between atoms: _99  and  _100
REMARK   45  A    between atoms: _105  and  _107
REMARK   46  A    between atoms: _107  and  _108
REMARK   47  A    between atoms: _107  and  _110
REMARK   48  A    between atoms: _110  and  _111
REMARK   49  A    between atoms: _116  and  _118
REMARK   50  A    between atoms: _118  and  _119
REMARK   51  A    between atoms: _118  and  _121
REMARK   52  A    between atoms: _124  and  _126
REMARK   53  A    between atoms: _126  and  _127
REMARK   54  A    between atoms: _126  and  _129
REMARK   55  A    between atoms: _129  and  _130
REMARK   56  A    between atoms: _130  and  _131
REMARK   57  A    between atoms: _136  and  _138
REMARK   58  A    between atoms: _138  and  _139
REMARK   59  A    between atoms: _138  and  _141
REMARK   60  A    between atoms: _141  and  _142
REMARK   61  A    between atoms: _145  and  _147
REMARK   62  A    between atoms: _147  and  _148
REMARK   63  A    between atoms: _151  and  _153
REMARK   64  A    between atoms: _153  and  _154
REMARK   65  A    between atoms: _153  and  _156
REMARK   66  A    between atoms: _159  and  _161
REMARK   67  A    between atoms: _161  and  _162
REMARK   68  A    between atoms: _161  and  _164
REMARK   69  A    between atoms: _164  and  _165
REMARK   70  A    between atoms: _165  and  _166
REMARK   71  A    between atoms: _169  and  _171
REMARK   72  A    between atoms: _171  and  _172
REMARK   73  A    between atoms: _175  and  _177
REMARK   74  A    between atoms: _177  and  _178
REMARK   75  A    between atoms: _177  and  _180
REMARK   76  A    between atoms: _180  and  _181
REMARK   77  A    between atoms: _181  and  _182
REMARK   78  A    between atoms: _184  and  _186
REMARK   79  A    between atoms: _186  and  _187
REMARK   80  A    between atoms: _186  and  _189
REMARK   81  A    between atoms: _189  and  _190
REMARK   82  A    between atoms: _196  and  _198
REMARK   83  A    between atoms: _198  and  _199
REMARK   84  A    between atoms: _198  and  _201
REMARK   85  A    between atoms: _201  and  _202
REMARK   86  A    between atoms: _205  and  _207
REMARK   87  A    between atoms: _207  and  _208
REMARK   88  A    between atoms: _207  and  _210
REMARK   89  A    between atoms: _210  and  _211
REMARK   90  A    between atoms: _211  and  _212
REMARK   91  A    between atoms: _212  and  _213
REMARK   92  A    between atoms: _222  and  _224
REMARK   93  A    between atoms: _224  and  _225
REMARK   94  A    between atoms: _224  and  _227
REMARK   95  A    between atoms: _227  and  _228
REMARK   96  A    between atoms: _230  and  _232
REMARK   97  A    between atoms: _232  and  _233
REMARK   98  A    between atoms: _236  and  _238
REMARK   99  A    between atoms: _238  and  _239
REMARK  100  A    between atoms: _238  and  _241
REMARK  101  A    between atoms: _241  and  _242
REMARK  102  A    between atoms: _245  and  _247
REMARK  103  A    between atoms: _247  and  _248
REMARK  104  A    between atoms: _247  and  _250
REMARK  105  A    between atoms: _250  and  _251
REMARK  106  A    between atoms: _257  and  _259
REMARK  107  A    between atoms: _259  and  _260
REMARK  108  A    between atoms: _259  and  _262
REMARK  109  A    between atoms: _262  and  _263
REMARK  110  A    between atoms: _266  and  _268
REMARK  111  A    between atoms: _268  and  _269
REMARK  112  A    between atoms: _268  and  _271
REMARK  113  A    between atoms: _271  and  _272
REMARK  114  A    between atoms: _272  and  _273
REMARK  115  A    between atoms: _273  and  _274
REMARK  116  A    between atoms: _283  and  _285
REMARK  117  A    between atoms: _285  and  _286
REMARK  118  A    between atoms: _285  and  _288
REMARK  119  A    between atoms: _288  and  _289
REMARK  120  A    between atoms: _292  and  _294
REMARK  121  A    between atoms: _294  and  _295
REMARK  122  A    between atoms: _294  and  _297
REMARK  123  A    between atoms: _297  and  _298
REMARK  124  A    between atoms: _298  and  _299
REMARK  125  A    between atoms: _299  and  _300
REMARK  126  A    between atoms: _309  and  _311
REMARK  127  A    between atoms: _311  and  _312
REMARK  128  A    between atoms: _311  and  _314
REMARK  129  A    between atoms: _314  and  _315
REMARK  130  A    between atoms: _317  and  _319
REMARK  131  A    between atoms: _319  and  _320
REMARK  132  A    between atoms: _319  and  _322
REMARK  133  A    between atoms: _322  and  _323
REMARK  134  A    between atoms: _326  and  _328
REMARK  135  A    between atoms: _328  and  _329
REMARK  136  A    between atoms: _328  and  _331
REMARK  137  A    between atoms: _331  and  _332
REMARK  138  A    between atoms: _334  and  _336
REMARK  139  A    between atoms: _336  and  _337
REMARK  140  A    between atoms: _336  and  _339
REMARK  141  A    between atoms: _339  and  _340
REMARK  142  A    between atoms: _343  and  _345
REMARK  143  A    between atoms: _345  and  _346
REMARK  144  A    between atoms: _345  and  _348
REMARK  145  A    between atoms: _348  and  _349
REMARK  146  A    between atoms: _349  and  _350
REMARK  147  A    between atoms: _353  and  _355
REMARK  148  A    between atoms: _355  and  _356
REMARK  149  A    between atoms: _355  and  _358
REMARK  150  A    between atoms: _358  and  _359
REMARK  151  A    between atoms: _364  and  _365
REMARK  152  A    between atoms: _367  and  _369
REMARK  153  A    between atoms: _369  and  _370
REMARK  154  A    between atoms: _369  and  _372
REMARK  155  A    between atoms: _372  and  _373
REMARK  156  A    between atoms: _376  and  _378
REMARK  157  A    between atoms: _378  and  _379
REMARK  158  A    between atoms: _378  and  _381
REMARK  159  A    between atoms: _381  and  _382
REMARK  160  A    between atoms: _386  and  _387
REMARK  161  A    between atoms: _392  and  _394
REMARK  162  A    between atoms: _394  and  _395
REMARK  163  A    between atoms: _394  and  _397
REMARK  164  A    between atoms: _397  and  _398
REMARK  165  A    between atoms: _398  and  _399
REMARK  166  A    between atoms: _401  and  _403
REMARK  167  A    between atoms: _403  and  _404
REMARK  168  A    between atoms: _403  and  _406
REMARK  169  A    between atoms: _406  and  _407
REMARK  170  A    between atoms: _413  and  _415
REMARK  171  A    between atoms: _415  and  _416
REMARK  172  A    between atoms: _415  and  _418
REMARK  173  A    between atoms: _418  and  _419
REMARK  174  A    between atoms: _424  and  _425
REMARK  175  A    between atoms: _427  and  _429
REMARK  176  A    between atoms: _429  and  _430
REMARK  177  A    between atoms: _429  and  _432
REMARK  178  A    between atoms: _432  and  _433
REMARK  179  A    between atoms: _438  and  _440
REMARK  180  A    between atoms: _440  and  _441
REMARK  181  A    between atoms: _440  and  _443
REMARK  182  A    between atoms: _443  and  _444
REMARK  183  A    between atoms: _449  and  _451
REMARK  184  A    between atoms: _451  and  _452
REMARK  185  A    between atoms: _451  and  _454
REMARK  186  A    between atoms: _454  and  _455
REMARK  187  A    between atoms: _460  and  _462
REMARK  188  A    between atoms: _462  and  _463
REMARK  189  A    between atoms: _462  and  _465
REMARK  190  A    between atoms: _465  and  _466
REMARK  191  A    between atoms: _471  and  _473
REMARK  192  A    between atoms: _473  and  _474
REMARK  193  A    between atoms: _477  and  _479
REMARK  194  A    between atoms: _479  and  _480
REMARK  195  A    between atoms: _479  and  _482
REMARK  196  A    between atoms: _482  and  _483
REMARK  197  A    between atoms: _483  and  _484
REMARK  198  A    between atoms: _487  and  _489
REMARK  199  A    between atoms: _489  and  _490
REMARK  200  A    between atoms: _489  and  _492
REMARK  201  A    between atoms: _492  and  _493
REMARK  202  A    between atoms: _493  and  _494
REMARK  203  A    between atoms: _496  and  _498
REMARK  204  A    between atoms: _498  and  _499
REMARK  205  A    between atoms: _498  and  _501
REMARK  206  A    between atoms: _501  and  _502
REMARK  207  A    between atoms: _505  and  _507
REMARK  208  A    between atoms: _507  and  _508
REMARK  209  A    between atoms: _507  and  _510
REMARK  210  A    between atoms: _510  and  _511
REMARK  211  A    between atoms: _511  and  _512
REMARK  212  A    between atoms: _514  and  _516
REMARK  213  A    between atoms: _516  and  _517
REMARK  214  A    between atoms: _516  and  _519
REMARK  215  A    between atoms: _519  and  _520
REMARK  216  A    between atoms: _522  and  _524
REMARK  217  A    between atoms: _524  and  _525
REMARK  218  A    between atoms: _524  and  _527
REMARK  219  A    between atoms: _527  and  _528
REMARK  220  A    between atoms: _538  and  _540
REMARK  221  A    between atoms: _540  and  _541
REMARK  222  A    between atoms: _540  and  _543
REMARK  223  A    between atoms: _543  and  _544
REMARK  224  A    between atoms: _544  and  _545
REMARK  225  A    between atoms: _545  and  _546
REMARK  226  A    between atoms: _555  and  _557
REMARK  227  A    between atoms: _557  and  _558
REMARK  228  A    between atoms: _557  and  _560
REMARK  229  A    between atoms: _563  and  _565
REMARK  230  A    between atoms: _565  and  _566
REMARK  231  A    between atoms: _565  and  _568
REMARK  232  A    between atoms: _568  and  _569
REMARK  233  A    between atoms: _569  and  _570
REMARK  234  A    between atoms: _573  and  _575
REMARK  235  A    between atoms: _575  and  _576
REMARK  236  A    between atoms: _575  and  _578
REMARK  237  A    between atoms: _578  and  _579
REMARK  238  A    between atoms: _582  and  _584
REMARK  239  A    between atoms: _584  and  _585
REMARK  240  A    between atoms: _584  and  _587
REMARK  241  A    between atoms: _587  and  _588
REMARK  242  A    between atoms: _591  and  _593
REMARK  243  A    between atoms: _593  and  _594
REMARK  244  A    between atoms: _593  and  _596
REMARK  245  A    between atoms: _596  and  _597
REMARK                            x       y       z     vdW  Elec       q    Type
REMARK                         _______ _______ _______ _____ _____    ______ ____
ROOT
ATOM      1  O   HOH     1      20.741  14.049 -29.013  0.00  0.00    +0.000 OA
ENDROOT
TORSDOF 0
REMARK  Name = ../refined-set-2016/4oiv/4oiv_pocket.pdb
REMARK  245 active torsions:
REMARK  status: ('A' for Active; 'I' for Inactive)
REMARK    1  A    between atoms: _1  and  _3
REMARK    2  A    between atoms: _3  and  _4
REMARK    3  A    between atoms: _3  and  _6
REMARK    4  A    between atoms: _6  and  _7
REMARK    5  A    between atoms: _12  and  _14
REMARK    6  A    between atoms: _14  and  _15
REMARK    7  A    between atoms: _14  and  _17
REMARK    8  A    between atoms: _17  and  _18
REMARK    9  A    between atoms: _24  and  _26
REMARK   10  A    between atoms: _26  and  _27
REMARK   11  A    between atoms: _26  and  _29
REMARK   12  A    between atoms: _29  and  _30
REMARK   13  A    between atoms: _33  and  _35
REMARK   14  A    between atoms: _35  and  _36
REMARK   15  A    between atoms: _35  and  _38
REMARK   16  A    between atoms: _38  and  _39
REMARK   17  A    between atoms: _42  and  _44
REMARK   18  A    between atoms: _44  and  _45
REMARK   19  A    between atoms: _44  and  _47
REMARK   20  A    between atoms: _47  and  _48
REMARK   21  A    between atoms: _51  and  _53
REMARK   22  A    between atoms: _53  and  _54
REMARK   23  A    between atoms: _53  and  _56
REMARK   24  A    between atoms: _56  and  _57
REMARK   25  A    between atoms: _60  and  _62
REMARK   26  A    between atoms: _62  and  _63
REMARK   27  A    between atoms: _62  and  _65
REMARK   28  A    between atoms: _65  and  _66
REMARK   29  A    between atoms: _66  and  _67
REMARK   30  A    between atoms: _70  and  _72
REMARK   31  A    between atoms: _72  and  _73
REMARK   32  A    between atoms: _72  and  _75
REMARK   33  A    between atoms: _75  and  _76
REMARK   34  A    between atoms: _76  and  _77
REMARK   35  A    between atoms: _79  and  _81
REMARK   36  A    between atoms: _81  and  _82
REMARK   37  A    between atoms: _85  and  _87
REMARK   38  A    between atoms: _87  and  _88
REMARK   39  A    between atoms: _87  and  _90
REMARK   40  A    between atoms: _90  and  _91
REMARK   41  A    between atoms: _94  and  _96
REMARK   42  A    between atoms: _96  and  _97
REMARK   43  A    between atoms: _96  and  _99
REMARK   44  A    between atoms: _99  and  _100
REMARK   45  A    between atoms: _105  and  _107
REMARK   46  A    between atoms: _107  and  _108
REMARK   47  A    between atoms: _107  and  _110
REMARK   48  A    between atoms: _110  and  _111
REMARK   49  A    between atoms: _116  and  _118
REMARK   50  A    between atoms: _118  and  _119
REMARK   51  A    between atoms: _118  and  _121
REMARK   52  A    between atoms: _124  and  _126
REMARK   53  A    between atoms: _126  and  _127
REMARK   54  A    between atoms: _126  and  _129
REMARK   55  A    between atoms: _129  and  _130
REMARK   56  A    between atoms: _130  and  _131
REMARK   57  A    between atoms: _136  and  _138
REMARK   58  A    between atoms: _138  and  _139
REMARK   59  A    between atoms: _138  and  _141
REMARK   60  A    between atoms: _141  and  _142
REMARK   61  A    between atoms: _145  and  _147
REMARK   62  A    between atoms: _147  and  _148
REMARK   63  A    between atoms: _151  and  _153
REMARK   64  A    between atoms: _153  and  _154
REMARK   65  A    between atoms: _153  and  _156
REMARK   66  A    between atoms: _159  and  _161
REMARK   67  A    between atoms: _161  and  _162
REMARK   68  A    between atoms: _161  and  _164
REMARK   69  A    between atoms: _164  and  _165
REMARK   70  A    between atoms: _165  and  _166
REMARK   71  A    between atoms: _169  and  _171
REMARK   72  A    between atoms: _171  and  _172
REMARK   73  A    between atoms: _175  and  _177
REMARK   74  A    between atoms: _177  and  _178
REMARK   75  A    between atoms: _177  and  _180
REMARK   76  A    between atoms: _180  and  _181
REMARK   77  A    between atoms: _181  and  _182
REMARK   78  A    between atoms: _184  and  _186
REMARK   79  A    between atoms: _186  and  _187
REMARK   80  A    between atoms: _186  and  _189
REMARK   81  A    between atoms: _189  and  _190
REMARK   82  A    between atoms: _196  and  _198
REMARK   83  A    between atoms: _198  and  _199
REMARK   84  A    between atoms: _198  and  _201
REMARK   85  A    between atoms: _201  and  _202
REMARK   86  A    between atoms: _205  and  _207
REMARK   87  A    between atoms: _207  and  _208
REMARK   88  A    between atoms: _207  and  _210
REMARK   89  A    between atoms: _210  and  _211
REMARK   90  A    between atoms: _211  and  _212
REMARK   91  A    between atoms: _212  and  _213
REMARK   92  A    between atoms: _222  and  _224
REMARK   93  A    between atoms: _224  and  _225
REMARK   94  A    between atoms: _224  and  _227
REMARK   95  A    between atoms: _227  and  _228
REMARK   96  A    between atoms: _230  and  _232
REMARK   97  A    between atoms: _232  and  _233
REMARK   98  A    between atoms: _236  and  _238
REMARK   99  A    between atoms: _238  and  _239
REMARK  100  A    between atoms: _238  and  _241
REMARK  101  A    between atoms: _241  and  _242
REMARK  102  A    between atoms: _245  and  _247
REMARK  103  A    between atoms: _247  and  _248
REMARK  104  A    between atoms: _247  and  _250
REMARK  105  A    between atoms: _250  and  _251
REMARK  106  A    between atoms: _257  and  _259
REMARK  107  A    between atoms: _259  and  _260
REMARK  108  A    between atoms: _259  and  _262
REMARK  109  A    between atoms: _262  and  _263
REMARK  110  A    between atoms: _266  and  _268
REMARK  111  A    between atoms: _268  and  _269
REMARK  112  A    between atoms: _268  and  _271
REMARK  113  A    between atoms: _271  and  _272
REMARK  114  A    between atoms: _272  and  _273
REMARK  115  A    between atoms: _273  and  _274
REMARK  116  A    between atoms: _283  and  _285
REMARK  117  A    between atoms: _285  and  _286
REMARK  118  A    between atoms: _285  and  _288
REMARK  119  A    between atoms: _288  and  _289
REMARK  120  A    between atoms: _292  and  _294
REMARK  121  A    between atoms: _294  and  _295
REMARK  122  A    between atoms: _294  and  _297
REMARK  123  A    between atoms: _297  and  _298
REMARK  124  A    between atoms: _298  and  _299
REMARK  125  A    between atoms: _299  and  _300
REMARK  126  A    between atoms: _309  and  _311
REMARK  127  A    between atoms: _311  and  _312
REMARK  128  A    between atoms: _311  and  _314
REMARK  129  A    between atoms: _314  and  _315
REMARK  130  A    between atoms: _317  and  _319
REMARK  131  A    between atoms: _319  and  _320
REMARK  132  A    between atoms: _319  and  _322
REMARK  133  A    between atoms: _322  and  _323
REMARK  134  A    between atoms: _326  and  _328
REMARK  135  A    between atoms: _328  and  _329
REMARK  136  A    between atoms: _328  and  _331
REMARK  137  A    between atoms: _331  and  _332
REMARK  138  A    between atoms: _334  and  _336
REMARK  139  A    between atoms: _336  and  _337
REMARK  140  A    between atoms: _336  and  _339
REMARK  141  A    between atoms: _339  and  _340
REMARK  142  A    between atoms: _343  and  _345
REMARK  143  A    between atoms: _345  and  _346
REMARK  144  A    between atoms: _345  and  _348
REMARK  145  A    between atoms: _348  and  _349
REMARK  146  A    between atoms: _349  and  _350
REMARK  147  A    between atoms: _353  and  _355
REMARK  148  A    between atoms: _355  and  _356
REMARK  149  A    between atoms: _355  and  _358
REMARK  150  A    between atoms: _358  and  _359
REMARK  151  A    between atoms: _364  and  _365
REMARK  152  A    between atoms: _367  and  _369
REMARK  153  A    between atoms: _369  and  _370
REMARK  154  A    between atoms: _369  and  _372
REMARK  155  A    between atoms: _372  and  _373
REMARK  156  A    between atoms: _376  and  _378
REMARK  157  A    between atoms: _378  and  _379
REMARK  158  A    between atoms: _378  and  _381
REMARK  159  A    between atoms: _381  and  _382
REMARK  160  A    between atoms: _386  and  _387
REMARK  161  A    between atoms: _392  and  _394
REMARK  162  A    between atoms: _394  and  _395
REMARK  163  A    between atoms: _394  and  _397
REMARK  164  A    between atoms: _397  and  _398
REMARK  165  A    between atoms: _398  and  _399
REMARK  166  A    between atoms: _401  and  _403
REMARK  167  A    between atoms: _403  and  _404
REMARK  168  A    between atoms: _403  and  _406
REMARK  169  A    between atoms: _406  and  _407
REMARK  170  A    between atoms: _413  and  _415
REMARK  171  A    between atoms: _415  and  _416
REMARK  172  A    between atoms: _415  and  _418
REMARK  173  A    between atoms: _418  and  _419
REMARK  174  A    between atoms: _424  and  _425
REMARK  175  A    between atoms: _427  and  _429
REMARK  176  A    between atoms: _429  and  _430
REMARK  177  A    between atoms: _429  and  _432
REMARK  178  A    between atoms: _432  and  _433
REMARK  179  A    between atoms: _438  and  _440
REMARK  180  A    between atoms: _440  and  _441
REMARK  181  A    between atoms: _440  and  _443
REMARK  182  A    between atoms: _443  and  _444
REMARK  183  A    between atoms: _449  and  _451
REMARK  184  A    between atoms: _451  and  _452
REMARK  185  A    between atoms: _451  and  _454
REMARK  186  A    between atoms: _454  and  _455
REMARK  187  A    between atoms: _460  and  _462
REMARK  188  A    between atoms: _462  and  _463
REMARK  189  A    between atoms: _462  and  _465
REMARK  190  A    between atoms: _465  and  _466
REMARK  191  A    between atoms: _471  and  _473
REMARK  192  A    between atoms: _473  and  _474
REMARK  193  A    between atoms: _477  and  _479
REMARK  194  A    between atoms: _479  and  _480
REMARK  195  A    between atoms: _479  and  _482
REMARK  196  A    between atoms: _482  and  _483
REMARK  197  A    between atoms: _483  and  _484
REMARK  198  A    between atoms: _487  and  _489
REMARK  199  A    between atoms: _489  and  _490
REMARK  200  A    between atoms: _489  and  _492
REMARK  201  A    between atoms: _492  and  _493
REMARK  202  A    between atoms: _493  and  _494
REMARK  203  A    between atoms: _496  and  _498
REMARK  204  A    between atoms: _498  and  _499
REMARK  205  A    between atoms: _498  and  _501
REMARK  206  A    between atoms: _501  and  _502
REMARK  207  A    between atoms: _505  and  _507
REMARK  208  A    between atoms: _507  and  _508
REMARK  209  A    between atoms: _507  and  _510
REMARK  210  A    between atoms: _510  and  _511
REMARK  211  A    between atoms: _511  and  _512
REMARK  212  A    between atoms: _514  and  _516
REMARK  213  A    between atoms: _516  and  _517
REMARK  214  A    between atoms: _516  and  _519
REMARK  215  A    between atoms: _519  and  _520
REMARK  216  A    between atoms: _522  and  _524
REMARK  217  A    between atoms: _524  and  _525
REMARK  218  A    between atoms: _524  and  _527
REMARK  219  A    between atoms: _527  and  _528
REMARK  220  A    between atoms: _538  and  _540
REMARK  221  A    between atoms: _540  and  _541
REMARK  222  A    between atoms: _540  and  _543
REMARK  223  A    between atoms: _543  and  _544
REMARK  224  A    between atoms: _544  and  _545
REMARK  225  A    between atoms: _545  and  _546
REMARK  226  A    between atoms: _555  and  _557
REMARK  227  A    between atoms: _557  and  _558
REMARK  228  A    between atoms: _557  and  _560
REMARK  229  A    between atoms: _563  and  _565
REMARK  230  A    between atoms: _565  and  _566
REMARK  231  A    between atoms: _565  and  _568
REMARK  232  A    between atoms: _568  and  _569
REMARK  233  A    between atoms: _569  and  _570
REMARK  234  A    between atoms: _573  and  _575
REMARK  235  A    between atoms: _575  and  _576
REMARK  236  A    between atoms: _575  and  _578
REMARK  237  A    between atoms: _578  and  _579
REMARK  238  A    between atoms: _582  and  _584
REMARK  239  A    between atoms: _584  and  _585
REMARK  240  A    between atoms: _584  and  _587
REMARK  241  A    between atoms: _587  and  _588
REMARK  242  A    between atoms: _591  and  _593
REMARK  243  A    between atoms: _593  and  _594
REMARK  244  A    between atoms: _593  and  _596
REMARK  245  A    between atoms: _596  and  _597
REMARK                            x       y       z     vdW  Elec       q    Type
REMARK                         _______ _______ _______ _____ _____    ______ ____
ROOT
ATOM      1  O   HOH     1       6.693  17.192 -13.277  0.00  0.00    +0.000 OA
ENDROOT
TORSDOF 0
REMARK  Name = ../refined-set-2016/4oiv/4oiv_pocket.pdb
REMARK  245 active torsions:
REMARK  status: ('A' for Active; 'I' for Inactive)
REMARK    1  A    between atoms: _1  and  _3
REMARK    2  A    between atoms: _3  and  _4
REMARK    3  A    between atoms: _3  and  _6
REMARK    4  A    between atoms: _6  and  _7
REMARK    5  A    between atoms: _12  and  _14
REMARK    6  A    between atoms: _14  and  _15
REMARK    7  A    between atoms: _14  and  _17
REMARK    8  A    between atoms: _17  and  _18
REMARK    9  A    between atoms: _24  and  _26
REMARK   10  A    between atoms: _26  and  _27
REMARK   11  A    between atoms: _26  and  _29
REMARK   12  A    between atoms: _29  and  _30
REMARK   13  A    between atoms: _33  and  _35
REMARK   14  A    between atoms: _35  and  _36
REMARK   15  A    between atoms: _35  and  _38
REMARK   16  A    between atoms: _38  and  _39
REMARK   17  A    between atoms: _42  and  _44
REMARK   18  A    between atoms: _44  and  _45
REMARK   19  A    between atoms: _44  and  _47
REMARK   20  A    between atoms: _47  and  _48
REMARK   21  A    between atoms: _51  and  _53
REMARK   22  A    between atoms: _53  and  _54
REMARK   23  A    between atoms: _53  and  _56
REMARK   24  A    between atoms: _56  and  _57
REMARK   25  A    between atoms: _60  and  _62
REMARK   26  A    between atoms: _62  and  _63
REMARK   27  A    between atoms: _62  and  _65
REMARK   28  A    between atoms: _65  and  _66
REMARK   29  A    between atoms: _66  and  _67
REMARK   30  A    between atoms: _70  and  _72
REMARK   31  A    between atoms: _72  and  _73
REMARK   32  A    between atoms: _72  and  _75
REMARK   33  A    between atoms: _75  and  _76
REMARK   34  A    between atoms: _76  and  _77
REMARK   35  A    between atoms: _79  and  _81
REMARK   36  A    between atoms: _81  and  _82
REMARK   37  A    between atoms: _85  and  _87
REMARK   38  A    between atoms: _87  and  _88
REMARK   39  A    between atoms: _87  and  _90
REMARK   40  A    between atoms: _90  and  _91
REMARK   41  A    between atoms: _94  and  _96
REMARK   42  A    between atoms: _96  and  _97
REMARK   43  A    between atoms: _96  and  _99
REMARK   44  A    between atoms: _99  and  _100
REMARK   45  A    between atoms: _105  and  _107
REMARK   46  A    between atoms: _107  and  _108
REMARK   47  A    between atoms: _107  and  _110
REMARK   48  A    between atoms: _110  and  _111
REMARK   49  A    between atoms: _116  and  _118
REMARK   50  A    between atoms: _118  and  _119
REMARK   51  A    between atoms: _118  and  _121
REMARK   52  A    between atoms: _124  and  _126
REMARK   53  A    between atoms: _126  and  _127
REMARK   54  A    between atoms: _126  and  _129
REMARK   55  A    between atoms: _129  and  _130
REMARK   56  A    between atoms: _130  and  _131
REMARK   57  A    between atoms: _136  and  _138
REMARK   58  A    between atoms: _138  and  _139
REMARK   59  A    between atoms: _138  and  _141
REMARK   60  A    between atoms: _141  and  _142
REMARK   61  A    between atoms: _145  and  _147
REMARK   62  A    between atoms: _147  and  _148
REMARK   63  A    between atoms: _151  and  _153
REMARK   64  A    between atoms: _153  and  _154
REMARK   65  A    between atoms: _153  and  _156
REMARK   66  A    between atoms: _159  and  _161
REMARK   67  A    between atoms: _161  and  _162
REMARK   68  A    between atoms: _161  and  _164
REMARK   69  A    between atoms: _164  and  _165
REMARK   70  A    between atoms: _165  and  _166
REMARK   71  A    between atoms: _169  and  _171
REMARK   72  A    between atoms: _171  and  _172
REMARK   73  A    between atoms: _175  and  _177
REMARK   74  A    between atoms: _177  and  _178
REMARK   75  A    between atoms: _177  and  _180
REMARK   76  A    between atoms: _180  and  _181
REMARK   77  A    between atoms: _181  and  _182
REMARK   78  A    between atoms: _184  and  _186
REMARK   79  A    between atoms: _186  and  _187
REMARK   80  A    between atoms: _186  and  _189
REMARK   81  A    between atoms: _189  and  _190
REMARK   82  A    between atoms: _196  and  _198
REMARK   83  A    between atoms: _198  and  _199
REMARK   84  A    between atoms: _198  and  _201
REMARK   85  A    between atoms: _201  and  _202
REMARK   86  A    between atoms: _205  and  _207
REMARK   87  A    between atoms: _207  and  _208
REMARK   88  A    between atoms: _207  and  _210
REMARK   89  A    between atoms: _210  and  _211
REMARK   90  A    between atoms: _211  and  _212
REMARK   91  A    between atoms: _212  and  _213
REMARK   92  A    between atoms: _222  and  _224
REMARK   93  A    between atoms: _224  and  _225
REMARK   94  A    between atoms: _224  and  _227
REMARK   95  A    between atoms: _227  and  _228
REMARK   96  A    between atoms: _230  and  _232
REMARK   97  A    between atoms: _232  and  _233
REMARK   98  A    between atoms: _236  and  _238
REMARK   99  A    between atoms: _238  and  _239
REMARK  100  A    between atoms: _238  and  _241
REMARK  101  A    between atoms: _241  and  _242
REMARK  102  A    between atoms: _245  and  _247
REMARK  103  A    between atoms: _247  and  _248
REMARK  104  A    between atoms: _247  and  _250
REMARK  105  A    between atoms: _250  and  _251
REMARK  106  A    between atoms: _257  and  _259
REMARK  107  A    between atoms: _259  and  _260
REMARK  108  A    between atoms: _259  and  _262
REMARK  109  A    between atoms: _262  and  _263
REMARK  110  A    between atoms: _266  and  _268
REMARK  111  A    between atoms: _268  and  _269
REMARK  112  A    between atoms: _268  and  _271
REMARK  113  A    between atoms: _271  and  _272
REMARK  114  A    between atoms: _272  and  _273
REMARK  115  A    between atoms: _273  and  _274
REMARK  116  A    between atoms: _283  and  _285
REMARK  117  A    between atoms: _285  and  _286
REMARK  118  A    between atoms: _285  and  _288
REMARK  119  A    between atoms: _288  and  _289
REMARK  120  A    between atoms: _292  and  _294
REMARK  121  A    between atoms: _294  and  _295
REMARK  122  A    between atoms: _294  and  _297
REMARK  123  A    between atoms: _297  and  _298
REMARK  124  A    between atoms: _298  and  _299
REMARK  125  A    between atoms: _299  and  _300
REMARK  126  A    between atoms: _309  and  _311
REMARK  127  A    between atoms: _311  and  _312
REMARK  128  A    between atoms: _311  and  _314
REMARK  129  A    between atoms: _314  and  _315
REMARK  130  A    between atoms: _317  and  _319
REMARK  131  A    between atoms: _319  and  _320
REMARK  132  A    between atoms: _319  and  _322
REMARK  133  A    between atoms: _322  and  _323
REMARK  134  A    between atoms: _326  and  _328
REMARK  135  A    between atoms: _328  and  _329
REMARK  136  A    between atoms: _328  and  _331
REMARK  137  A    between atoms: _331  and  _332
REMARK  138  A    between atoms: _334  and  _336
REMARK  139  A    between atoms: _336  and  _337
REMARK  140  A    between atoms: _336  and  _339
REMARK  141  A    between atoms: _339  and  _340
REMARK  142  A    between atoms: _343  and  _345
REMARK  143  A    between atoms: _345  and  _346
REMARK  144  A    between atoms: _345  and  _348
REMARK  145  A    between atoms: _348  and  _349
REMARK  146  A    between atoms: _349  and  _350
REMARK  147  A    between atoms: _353  and  _355
REMARK  148  A    between atoms: _355  and  _356
REMARK  149  A    between atoms: _355  and  _358
REMARK  150  A    between atoms: _358  and  _359
REMARK  151  A    between atoms: _364  and  _365
REMARK  152  A    between atoms: _367  and  _369
REMARK  153  A    between atoms: _369  and  _370
REMARK  154  A    between atoms: _369  and  _372
REMARK  155  A    between atoms: _372  and  _373
REMARK  156  A    between atoms: _376  and  _378
REMARK  157  A    between atoms: _378  and  _379
REMARK  158  A    between atoms: _378  and  _381
REMARK  159  A    between atoms: _381  and  _382
REMARK  160  A    between atoms: _386  and  _387
REMARK  161  A    between atoms: _392  and  _394
REMARK  162  A    between atoms: _394  and  _395
REMARK  163  A    between atoms: _394  and  _397
REMARK  164  A    between atoms: _397  and  _398
REMARK  165  A    between atoms: _398  and  _399
REMARK  166  A    between atoms: _401  and  _403
REMARK  167  A    between atoms: _403  and  _404
REMARK  168  A    between atoms: _403  and  _406
REMARK  169  A    between atoms: _406  and  _407
REMARK  170  A    between atoms: _413  and  _415
REMARK  171  A    between atoms: _415  and  _416
REMARK  172  A    between atoms: _415  and  _418
REMARK  173  A    between atoms: _418  and  _419
REMARK  174  A    between atoms: _424  and  _425
REMARK  175  A    between atoms: _427  and  _429
REMARK  176  A    between atoms: _429  and  _430
REMARK  177  A    between atoms: _429  and  _432
REMARK  178  A    between atoms: _432  and  _433
REMARK  179  A    between atoms: _438  and  _440
REMARK  180  A    between atoms: _440  and  _441
REMARK  181  A    between atoms: _440  and  _443
REMARK  182  A    between atoms: _443  and  _444
REMARK  183  A    between atoms: _449  and  _451
REMARK  184  A    between atoms: _451  and  _452
REMARK  185  A    between atoms: _451  and  _454
REMARK  186  A    between atoms: _454  and  _455
REMARK  187  A    between atoms: _460  and  _462
REMARK  188  A    between atoms: _462  and  _463
REMARK  189  A    between atoms: _462  and  _465
REMARK  190  A    between atoms: _465  and  _466
REMARK  191  A    between atoms: _471  and  _473
REMARK  192  A    between atoms: _473  and  _474
REMARK  193  A    between atoms: _477  and  _479
REMARK  194  A    between atoms: _479  and  _480
REMARK  195  A    between atoms: _479  and  _482
REMARK  196  A    between atoms: _482  and  _483
REMARK  197  A    between atoms: _483  and  _484
REMARK  198  A    between atoms: _487  and  _489
REMARK  199  A    between atoms: _489  and  _490
REMARK  200  A    between atoms: _489  and  _492
REMARK  201  A    between atoms: _492  and  _493
REMARK  202  A    between atoms: _493  and  _494
REMARK  203  A    between atoms: _496  and  _498
REMARK  204  A    between atoms: _498  and  _499
REMARK  205  A    between atoms: _498  and  _501
REMARK  206  A    between atoms: _501  and  _502
REMARK  207  A    between atoms: _505  and  _507
REMARK  208  A    between atoms: _507  and  _508
REMARK  209  A    between atoms: _507  and  _510
REMARK  210  A    between atoms: _510  and  _511
REMARK  211  A    between atoms: _511  and  _512
REMARK  212  A    between atoms: _514  and  _516
REMARK  213  A    between atoms: _516  and  _517
REMARK  214  A    between atoms: _516  and  _519
REMARK  215  A    between atoms: _519  and  _520
REMARK  216  A    between atoms: _522  and  _524
REMARK  217  A    between atoms: _524  and  _525
REMARK  218  A    between atoms: _524  and  _527
REMARK  219  A    between atoms: _527  and  _528
REMARK  220  A    between atoms: _538  and  _540
REMARK  221  A    between atoms: _540  and  _541
REMARK  222  A    between atoms: _540  and  _543
REMARK  223  A    between atoms: _543  and  _544
REMARK  224  A    between atoms: _544  and  _545
REMARK  225  A    between atoms: _545  and  _546
REMARK  226  A    between atoms: _555  and  _557
REMARK  227  A    between atoms: _557  and  _558
REMARK  228  A    between atoms: _557  and  _560
REMARK  229  A    between atoms: _563  and  _565
REMARK  230  A    between atoms: _565  and  _566
REMARK  231  A    between atoms: _565  and  _568
REMARK  232  A    between atoms: _568  and  _569
REMARK  233  A    between atoms: _569  and  _570
REMARK  234  A    between atoms: _573  and  _575
REMARK  235  A    between atoms: _575  and  _576
REMARK  236  A    between atoms: _575  and  _578
REMARK  237  A    between atoms: _578  and  _579
REMARK  238  A    between atoms: _582  and  _584
REMARK  239  A    between atoms: _584  and  _585
REMARK  240  A    between atoms: _584  and  _587
REMARK  241  A    between atoms: _587  and  _588
REMARK  242  A    between atoms: _591  and  _593
REMARK  243  A    between atoms: _593  and  _594
REMARK  244  A    between atoms: _593  and  _596
REMARK  245  A    between atoms: _596  and  _597
REMARK                            x       y       z     vdW  Elec       q    Type
REMARK                         _______ _______ _______ _____ _____    ______ ____
ROOT
ATOM      1  O   HOH     1      13.352  25.725 -21.921  0.00  0.00    +0.000 OA
ENDROOT
TORSDOF 0
REMARK  Name = ../refined-set-2016/4oiv/4oiv_pocket.pdb
REMARK  245 active torsions:
REMARK  status: ('A' for Active; 'I' for Inactive)
REMARK    1  A    between atoms: _1  and  _3
REMARK    2  A    between atoms: _3  and  _4
REMARK    3  A    between atoms: _3  and  _6
REMARK    4  A    between atoms: _6  and  _7
REMARK    5  A    between atoms: _12  and  _14
REMARK    6  A    between atoms: _14  and  _15
REMARK    7  A    between atoms: _14  and  _17
REMARK    8  A    between atoms: _17  and  _18
REMARK    9  A    between atoms: _24  and  _26
REMARK   10  A    between atoms: _26  and  _27
REMARK   11  A    between atoms: _26  and  _29
REMARK   12  A    between atoms: _29  and  _30
REMARK   13  A    between atoms: _33  and  _35
REMARK   14  A    between atoms: _35  and  _36
REMARK   15  A    between atoms: _35  and  _38
REMARK   16  A    between atoms: _38  and  _39
REMARK   17  A    between atoms: _42  and  _44
REMARK   18  A    between atoms: _44  and  _45
REMARK   19  A    between atoms: _44  and  _47
REMARK   20  A    between atoms: _47  and  _48
REMARK   21  A    between atoms: _51  and  _53
REMARK   22  A    between atoms: _53  and  _54
REMARK   23  A    between atoms: _53  and  _56
REMARK   24  A    between atoms: _56  and  _57
REMARK   25  A    between atoms: _60  and  _62
REMARK   26  A    between atoms: _62  and  _63
REMARK   27  A    between atoms: _62  and  _65
REMARK   28  A    between atoms: _65  and  _66
REMARK   29  A    between atoms: _66  and  _67
REMARK   30  A    between atoms: _70  and  _72
REMARK   31  A    between atoms: _72  and  _73
REMARK   32  A    between atoms: _72  and  _75
REMARK   33  A    between atoms: _75  and  _76
REMARK   34  A    between atoms: _76  and  _77
REMARK   35  A    between atoms: _79  and  _81
REMARK   36  A    between atoms: _81  and  _82
REMARK   37  A    between atoms: _85  and  _87
REMARK   38  A    between atoms: _87  and  _88
REMARK   39  A    between atoms: _87  and  _90
REMARK   40  A    between atoms: _90  and  _91
REMARK   41  A    between atoms: _94  and  _96
REMARK   42  A    between atoms: _96  and  _97
REMARK   43  A    between atoms: _96  and  _99
REMARK   44  A    between atoms: _99  and  _100
REMARK   45  A    between atoms: _105  and  _107
REMARK   46  A    between atoms: _107  and  _108
REMARK   47  A    between atoms: _107  and  _110
REMARK   48  A    between atoms: _110  and  _111
REMARK   49  A    between atoms: _116  and  _118
REMARK   50  A    between atoms: _118  and  _119
REMARK   51  A    between atoms: _118  and  _121
REMARK   52  A    between atoms: _124  and  _126
REMARK   53  A    between atoms: _126  and  _127
REMARK   54  A    between atoms: _126  and  _129
REMARK   55  A    between atoms: _129  and  _130
REMARK   56  A    between atoms: _130  and  _131
REMARK   57  A    between atoms: _136  and  _138
REMARK   58  A    between atoms: _138  and  _139
REMARK   59  A    between atoms: _138  and  _141
REMARK   60  A    between atoms: _141  and  _142
REMARK   61  A    between atoms: _145  and  _147
REMARK   62  A    between atoms: _147  and  _148
REMARK   63  A    between atoms: _151  and  _153
REMARK   64  A    between atoms: _153  and  _154
REMARK   65  A    between atoms: _153  and  _156
REMARK   66  A    between atoms: _159  and  _161
REMARK   67  A    between atoms: _161  and  _162
REMARK   68  A    between atoms: _161  and  _164
REMARK   69  A    between atoms: _164  and  _165
REMARK   70  A    between atoms: _165  and  _166
REMARK   71  A    between atoms: _169  and  _171
REMARK   72  A    between atoms: _171  and  _172
REMARK   73  A    between atoms: _175  and  _177
REMARK   74  A    between atoms: _177  and  _178
REMARK   75  A    between atoms: _177  and  _180
REMARK   76  A    between atoms: _180  and  _181
REMARK   77  A    between atoms: _181  and  _182
REMARK   78  A    between atoms: _184  and  _186
REMARK   79  A    between atoms: _186  and  _187
REMARK   80  A    between atoms: _186  and  _189
REMARK   81  A    between atoms: _189  and  _190
REMARK   82  A    between atoms: _196  and  _198
REMARK   83  A    between atoms: _198  and  _199
REMARK   84  A    between atoms: _198  and  _201
REMARK   85  A    between atoms: _201  and  _202
REMARK   86  A    between atoms: _205  and  _207
REMARK   87  A    between atoms: _207  and  _208
REMARK   88  A    between atoms: _207  and  _210
REMARK   89  A    between atoms: _210  and  _211
REMARK   90  A    between atoms: _211  and  _212
REMARK   91  A    between atoms: _212  and  _213
REMARK   92  A    between atoms: _222  and  _224
REMARK   93  A    between atoms: _224  and  _225
REMARK   94  A    between atoms: _224  and  _227
REMARK   95  A    between atoms: _227  and  _228
REMARK   96  A    between atoms: _230  and  _232
REMARK   97  A    between atoms: _232  and  _233
REMARK   98  A    between atoms: _236  and  _238
REMARK   99  A    between atoms: _238  and  _239
REMARK  100  A    between atoms: _238  and  _241
REMARK  101  A    between atoms: _241  and  _242
REMARK  102  A    between atoms: _245  and  _247
REMARK  103  A    between atoms: _247  and  _248
REMARK  104  A    between atoms: _247  and  _250
REMARK  105  A    between atoms: _250  and  _251
REMARK  106  A    between atoms: _257  and  _259
REMARK  107  A    between atoms: _259  and  _260
REMARK  108  A    between atoms: _259  and  _262
REMARK  109  A    between atoms: _262  and  _263
REMARK  110  A    between atoms: _266  and  _268
REMARK  111  A    between atoms: _268  and  _269
REMARK  112  A    between atoms: _268  and  _271
REMARK  113  A    between atoms: _271  and  _272
REMARK  114  A    between atoms: _272  and  _273
REMARK  115  A    between atoms: _273  and  _274
REMARK  116  A    between atoms: _283  and  _285
REMARK  117  A    between atoms: _285  and  _286
REMARK  118  A    between atoms: _285  and  _288
REMARK  119  A    between atoms: _288  and  _289
REMARK  120  A    between atoms: _292  and  _294
REMARK  121  A    between atoms: _294  and  _295
REMARK  122  A    between atoms: _294  and  _297
REMARK  123  A    between atoms: _297  and  _298
REMARK  124  A    between atoms: _298  and  _299
REMARK  125  A    between atoms: _299  and  _300
REMARK  126  A    between atoms: _309  and  _311
REMARK  127  A    between atoms: _311  and  _312
REMARK  128  A    between atoms: _311  and  _314
REMARK  129  A    between atoms: _314  and  _315
REMARK  130  A    between atoms: _317  and  _319
REMARK  131  A    between atoms: _319  and  _320
REMARK  132  A    between atoms: _319  and  _322
REMARK  133  A    between atoms: _322  and  _323
REMARK  134  A    between atoms: _326  and  _328
REMARK  135  A    between atoms: _328  and  _329
REMARK  136  A    between atoms: _328  and  _331
REMARK  137  A    between atoms: _331  and  _332
REMARK  138  A    between atoms: _334  and  _336
REMARK  139  A    between atoms: _336  and  _337
REMARK  140  A    between atoms: _336  and  _339
REMARK  141  A    between atoms: _339  and  _340
REMARK  142  A    between atoms: _343  and  _345
REMARK  143  A    between atoms: _345  and  _346
REMARK  144  A    between atoms: _345  and  _348
REMARK  145  A    between atoms: _348  and  _349
REMARK  146  A    between atoms: _349  and  _350
REMARK  147  A    between atoms: _353  and  _355
REMARK  148  A    between atoms: _355  and  _356
REMARK  149  A    between atoms: _355  and  _358
REMARK  150  A    between atoms: _358  and  _359
REMARK  151  A    between atoms: _364  and  _365
REMARK  152  A    between atoms: _367  and  _369
REMARK  153  A    between atoms: _369  and  _370
REMARK  154  A    between atoms: _369  and  _372
REMARK  155  A    between atoms: _372  and  _373
REMARK  156  A    between atoms: _376  and  _378
REMARK  157  A    between atoms: _378  and  _379
REMARK  158  A    between atoms: _378  and  _381
REMARK  159  A    between atoms: _381  and  _382
REMARK  160  A    between atoms: _386  and  _387
REMARK  161  A    between atoms: _392  and  _394
REMARK  162  A    between atoms: _394  and  _395
REMARK  163  A    between atoms: _394  and  _397
REMARK  164  A    between atoms: _397  and  _398
REMARK  165  A    between atoms: _398  and  _399
REMARK  166  A    between atoms: _401  and  _403
REMARK  167  A    between atoms: _403  and  _404
REMARK  168  A    between atoms: _403  and  _406
REMARK  169  A    between atoms: _406  and  _407
REMARK  170  A    between atoms: _413  and  _415
REMARK  171  A    between atoms: _415  and  _416
REMARK  172  A    between atoms: _415  and  _418
REMARK  173  A    between atoms: _418  and  _419
REMARK  174  A    between atoms: _424  and  _425
REMARK  175  A    between atoms: _427  and  _429
REMARK  176  A    between atoms: _429  and  _430
REMARK  177  A    between atoms: _429  and  _432
REMARK  178  A    between atoms: _432  and  _433
REMARK  179  A    between atoms: _438  and  _440
REMARK  180  A    between atoms: _440  and  _441
REMARK  181  A    between atoms: _440  and  _443
REMARK  182  A    between atoms: _443  and  _444
REMARK  183  A    between atoms: _449  and  _451
REMARK  184  A    between atoms: _451  and  _452
REMARK  185  A    between atoms: _451  and  _454
REMARK  186  A    between atoms: _454  and  _455
REMARK  187  A    between atoms: _460  and  _462
REMARK  188  A    between atoms: _462  and  _463
REMARK  189  A    between atoms: _462  and  _465
REMARK  190  A    between atoms: _465  and  _466
REMARK  191  A    between atoms: _471  and  _473
REMARK  192  A    between atoms: _473  and  _474
REMARK  193  A    between atoms: _477  and  _479
REMARK  194  A    between atoms: _479  and  _480
REMARK  195  A    between atoms: _479  and  _482
REMARK  196  A    between atoms: _482  and  _483
REMARK  197  A    between atoms: _483  and  _484
REMARK  198  A    between atoms: _487  and  _489
REMARK  199  A    between atoms: _489  and  _490
REMARK  200  A    between atoms: _489  and  _492
REMARK  201  A    between atoms: _492  and  _493
REMARK  202  A    between atoms: _493  and  _494
REMARK  203  A    between atoms: _496  and  _498
REMARK  204  A    between atoms: _498  and  _499
REMARK  205  A    between atoms: _498  and  _501
REMARK  206  A    between atoms: _501  and  _502
REMARK  207  A    between atoms: _505  and  _507
REMARK  208  A    between atoms: _507  and  _508
REMARK  209  A    between atoms: _507  and  _510
REMARK  210  A    between atoms: _510  and  _511
REMARK  211  A    between atoms: _511  and  _512
REMARK  212  A    between atoms: _514  and  _516
REMARK  213  A    between atoms: _516  and  _517
REMARK  214  A    between atoms: _516  and  _519
REMARK  215  A    between atoms: _519  and  _520
REMARK  216  A    between atoms: _522  and  _524
REMARK  217  A    between atoms: _524  and  _525
REMARK  218  A    between atoms: _524  and  _527
REMARK  219  A    between atoms: _527  and  _528
REMARK  220  A    between atoms: _538  and  _540
REMARK  221  A    between atoms: _540  and  _541
REMARK  222  A    between atoms: _540  and  _543
REMARK  223  A    between atoms: _543  and  _544
REMARK  224  A    between atoms: _544  and  _545
REMARK  225  A    between atoms: _545  and  _546
REMARK  226  A    between atoms: _555  and  _557
REMARK  227  A    between atoms: _557  and  _558
REMARK  228  A    between atoms: _557  and  _560
REMARK  229  A    between atoms: _563  and  _565
REMARK  230  A    between atoms: _565  and  _566
REMARK  231  A    between atoms: _565  and  _568
REMARK  232  A    between atoms: _568  and  _569
REMARK  233  A    between atoms: _569  and  _570
REMARK  234  A    between atoms: _573  and  _575
REMARK  235  A    between atoms: _575  and  _576
REMARK  236  A    between atoms: _575  and  _578
REMARK  237  A    between atoms: _578  and  _579
REMARK  238  A    between atoms: _582  and  _584
REMARK  239  A    between atoms: _584  and  _585
REMARK  240  A    between atoms: _584  and  _587
REMARK  241  A    between atoms: _587  and  _588
REMARK  242  A    between atoms: _591  and  _593
REMARK  243  A    between atoms: _593  and  _594
REMARK  244  A    between atoms: _593  and  _596
REMARK  245  A    between atoms: _596  and  _597
REMARK                            x       y       z     vdW  Elec       q    Type
REMARK                         _______ _______ _______ _____ _____    ______ ____
ROOT
ATOM      1  O   HOH     1      24.600  15.077 -21.459  0.00  0.00    +0.000 OA
ENDROOT
TORSDOF 0
REMARK  Name = ../refined-set-2016/4oiv/4oiv_pocket.pdb
REMARK  245 active torsions:
REMARK  status: ('A' for Active; 'I' for Inactive)
REMARK    1  A    between atoms: _1  and  _3
REMARK    2  A    between atoms: _3  and  _4
REMARK    3  A    between atoms: _3  and  _6
REMARK    4  A    between atoms: _6  and  _7
REMARK    5  A    between atoms: _12  and  _14
REMARK    6  A    between atoms: _14  and  _15
REMARK    7  A    between atoms: _14  and  _17
REMARK    8  A    between atoms: _17  and  _18
REMARK    9  A    between atoms: _24  and  _26
REMARK   10  A    between atoms: _26  and  _27
REMARK   11  A    between atoms: _26  and  _29
REMARK   12  A    between atoms: _29  and  _30
REMARK   13  A    between atoms: _33  and  _35
REMARK   14  A    between atoms: _35  and  _36
REMARK   15  A    between atoms: _35  and  _38
REMARK   16  A    between atoms: _38  and  _39
REMARK   17  A    between atoms: _42  and  _44
REMARK   18  A    between atoms: _44  and  _45
REMARK   19  A    between atoms: _44  and  _47
REMARK   20  A    between atoms: _47  and  _48
REMARK   21  A    between atoms: _51  and  _53
REMARK   22  A    between atoms: _53  and  _54
REMARK   23  A    between atoms: _53  and  _56
REMARK   24  A    between atoms: _56  and  _57
REMARK   25  A    between atoms: _60  and  _62
REMARK   26  A    between atoms: _62  and  _63
REMARK   27  A    between atoms: _62  and  _65
REMARK   28  A    between atoms: _65  and  _66
REMARK   29  A    between atoms: _66  and  _67
REMARK   30  A    between atoms: _70  and  _72
REMARK   31  A    between atoms: _72  and  _73
REMARK   32  A    between atoms: _72  and  _75
REMARK   33  A    between atoms: _75  and  _76
REMARK   34  A    between atoms: _76  and  _77
REMARK   35  A    between atoms: _79  and  _81
REMARK   36  A    between atoms: _81  and  _82
REMARK   37  A    between atoms: _85  and  _87
REMARK   38  A    between atoms: _87  and  _88
REMARK   39  A    between atoms: _87  and  _90
REMARK   40  A    between atoms: _90  and  _91
REMARK   41  A    between atoms: _94  and  _96
REMARK   42  A    between atoms: _96  and  _97
REMARK   43  A    between atoms: _96  and  _99
REMARK   44  A    between atoms: _99  and  _100
REMARK   45  A    between atoms: _105  and  _107
REMARK   46  A    between atoms: _107  and  _108
REMARK   47  A    between atoms: _107  and  _110
REMARK   48  A    between atoms: _110  and  _111
REMARK   49  A    between atoms: _116  and  _118
REMARK   50  A    between atoms: _118  and  _119
REMARK   51  A    between atoms: _118  and  _121
REMARK   52  A    between atoms: _124  and  _126
REMARK   53  A    between atoms: _126  and  _127
REMARK   54  A    between atoms: _126  and  _129
REMARK   55  A    between atoms: _129  and  _130
REMARK   56  A    between atoms: _130  and  _131
REMARK   57  A    between atoms: _136  and  _138
REMARK   58  A    between atoms: _138  and  _139
REMARK   59  A    between atoms: _138  and  _141
REMARK   60  A    between atoms: _141  and  _142
REMARK   61  A    between atoms: _145  and  _147
REMARK   62  A    between atoms: _147  and  _148
REMARK   63  A    between atoms: _151  and  _153
REMARK   64  A    between atoms: _153  and  _154
REMARK   65  A    between atoms: _153  and  _156
REMARK   66  A    between atoms: _159  and  _161
REMARK   67  A    between atoms: _161  and  _162
REMARK   68  A    between atoms: _161  and  _164
REMARK   69  A    between atoms: _164  and  _165
REMARK   70  A    between atoms: _165  and  _166
REMARK   71  A    between atoms: _169  and  _171
REMARK   72  A    between atoms: _171  and  _172
REMARK   73  A    between atoms: _175  and  _177
REMARK   74  A    between atoms: _177  and  _178
REMARK   75  A    between atoms: _177  and  _180
REMARK   76  A    between atoms: _180  and  _181
REMARK   77  A    between atoms: _181  and  _182
REMARK   78  A    between atoms: _184  and  _186
REMARK   79  A    between atoms: _186  and  _187
REMARK   80  A    between atoms: _186  and  _189
REMARK   81  A    between atoms: _189  and  _190
REMARK   82  A    between atoms: _196  and  _198
REMARK   83  A    between atoms: _198  and  _199
REMARK   84  A    between atoms: _198  and  _201
REMARK   85  A    between atoms: _201  and  _202
REMARK   86  A    between atoms: _205  and  _207
REMARK   87  A    between atoms: _207  and  _208
REMARK   88  A    between atoms: _207  and  _210
REMARK   89  A    between atoms: _210  and  _211
REMARK   90  A    between atoms: _211  and  _212
REMARK   91  A    between atoms: _212  and  _213
REMARK   92  A    between atoms: _222  and  _224
REMARK   93  A    between atoms: _224  and  _225
REMARK   94  A    between atoms: _224  and  _227
REMARK   95  A    between atoms: _227  and  _228
REMARK   96  A    between atoms: _230  and  _232
REMARK   97  A    between atoms: _232  and  _233
REMARK   98  A    between atoms: _236  and  _238
REMARK   99  A    between atoms: _238  and  _239
REMARK  100  A    between atoms: _238  and  _241
REMARK  101  A    between atoms: _241  and  _242
REMARK  102  A    between atoms: _245  and  _247
REMARK  103  A    between atoms: _247  and  _248
REMARK  104  A    between atoms: _247  and  _250
REMARK  105  A    between atoms: _250  and  _251
REMARK  106  A    between atoms: _257  and  _259
REMARK  107  A    between atoms: _259  and  _260
REMARK  108  A    between atoms: _259  and  _262
REMARK  109  A    between atoms: _262  and  _263
REMARK  110  A    between atoms: _266  and  _268
REMARK  111  A    between atoms: _268  and  _269
REMARK  112  A    between atoms: _268  and  _271
REMARK  113  A    between atoms: _271  and  _272
REMARK  114  A    between atoms: _272  and  _273
REMARK  115  A    between atoms: _273  and  _274
REMARK  116  A    between atoms: _283  and  _285
REMARK  117  A    between atoms: _285  and  _286
REMARK  118  A    between atoms: _285  and  _288
REMARK  119  A    between atoms: _288  and  _289
REMARK  120  A    between atoms: _292  and  _294
REMARK  121  A    between atoms: _294  and  _295
REMARK  122  A    between atoms: _294  and  _297
REMARK  123  A    between atoms: _297  and  _298
REMARK  124  A    between atoms: _298  and  _299
REMARK  125  A    between atoms: _299  and  _300
REMARK  126  A    between atoms: _309  and  _311
REMARK  127  A    between atoms: _311  and  _312
REMARK  128  A    between atoms: _311  and  _314
REMARK  129  A    between atoms: _314  and  _315
REMARK  130  A    between atoms: _317  and  _319
REMARK  131  A    between atoms: _319  and  _320
REMARK  132  A    between atoms: _319  and  _322
REMARK  133  A    between atoms: _322  and  _323
REMARK  134  A    between atoms: _326  and  _328
REMARK  135  A    between atoms: _328  and  _329
REMARK  136  A    between atoms: _328  and  _331
REMARK  137  A    between atoms: _331  and  _332
REMARK  138  A    between atoms: _334  and  _336
REMARK  139  A    between atoms: _336  and  _337
REMARK  140  A    between atoms: _336  and  _339
REMARK  141  A    between atoms: _339  and  _340
REMARK  142  A    between atoms: _343  and  _345
REMARK  143  A    between atoms: _345  and  _346
REMARK  144  A    between atoms: _345  and  _348
REMARK  145  A    between atoms: _348  and  _349
REMARK  146  A    between atoms: _349  and  _350
REMARK  147  A    between atoms: _353  and  _355
REMARK  148  A    between atoms: _355  and  _356
REMARK  149  A    between atoms: _355  and  _358
REMARK  150  A    between atoms: _358  and  _359
REMARK  151  A    between atoms: _364  and  _365
REMARK  152  A    between atoms: _367  and  _369
REMARK  153  A    between atoms: _369  and  _370
REMARK  154  A    between atoms: _369  and  _372
REMARK  155  A    between atoms: _372  and  _373
REMARK  156  A    between atoms: _376  and  _378
REMARK  157  A    between atoms: _378  and  _379
REMARK  158  A    between atoms: _378  and  _381
REMARK  159  A    between atoms: _381  and  _382
REMARK  160  A    between atoms: _386  and  _387
REMARK  161  A    between atoms: _392  and  _394
REMARK  162  A    between atoms: _394  and  _395
REMARK  163  A    between atoms: _394  and  _397
REMARK  164  A    between atoms: _397  and  _398
REMARK  165  A    between atoms: _398  and  _399
REMARK  166  A    between atoms: _401  and  _403
REMARK  167  A    between atoms: _403  and  _404
REMARK  168  A    between atoms: _403  and  _406
REMARK  169  A    between atoms: _406  and  _407
REMARK  170  A    between atoms: _413  and  _415
REMARK  171  A    between atoms: _415  and  _416
REMARK  172  A    between atoms: _415  and  _418
REMARK  173  A    between atoms: _418  and  _419
REMARK  174  A    between atoms: _424  and  _425
REMARK  175  A    between atoms: _427  and  _429
REMARK  176  A    between atoms: _429  and  _430
REMARK  177  A    between atoms: _429  and  _432
REMARK  178  A    between atoms: _432  and  _433
REMARK  179  A    between atoms: _438  and  _440
REMARK  180  A    between atoms: _440  and  _441
REMARK  181  A    between atoms: _440  and  _443
REMARK  182  A    between atoms: _443  and  _444
REMARK  183  A    between atoms: _449  and  _451
REMARK  184  A    between atoms: _451  and  _452
REMARK  185  A    between atoms: _451  and  _454
REMARK  186  A    between atoms: _454  and  _455
REMARK  187  A    between atoms: _460  and  _462
REMARK  188  A    between atoms: _462  and  _463
REMARK  189  A    between atoms: _462  and  _465
REMARK  190  A    between atoms: _465  and  _466
REMARK  191  A    between atoms: _471  and  _473
REMARK  192  A    between atoms: _473  and  _474
REMARK  193  A    between atoms: _477  and  _479
REMARK  194  A    between atoms: _479  and  _480
REMARK  195  A    between atoms: _479  and  _482
REMARK  196  A    between atoms: _482  and  _483
REMARK  197  A    between atoms: _483  and  _484
REMARK  198  A    between atoms: _487  and  _489
REMARK  199  A    between atoms: _489  and  _490
REMARK  200  A    between atoms: _489  and  _492
REMARK  201  A    between atoms: _492  and  _493
REMARK  202  A    between atoms: _493  and  _494
REMARK  203  A    between atoms: _496  and  _498
REMARK  204  A    between atoms: _498  and  _499
REMARK  205  A    between atoms: _498  and  _501
REMARK  206  A    between atoms: _501  and  _502
REMARK  207  A    between atoms: _505  and  _507
REMARK  208  A    between atoms: _507  and  _508
REMARK  209  A    between atoms: _507  and  _510
REMARK  210  A    between atoms: _510  and  _511
REMARK  211  A    between atoms: _511  and  _512
REMARK  212  A    between atoms: _514  and  _516
REMARK  213  A    between atoms: _516  and  _517
REMARK  214  A    between atoms: _516  and  _519
REMARK  215  A    between atoms: _519  and  _520
REMARK  216  A    between atoms: _522  and  _524
REMARK  217  A    between atoms: _524  and  _525
REMARK  218  A    between atoms: _524  and  _527
REMARK  219  A    between atoms: _527  and  _528
REMARK  220  A    between atoms: _538  and  _540
REMARK  221  A    between atoms: _540  and  _541
REMARK  222  A    between atoms: _540  and  _543
REMARK  223  A    between atoms: _543  and  _544
REMARK  224  A    between atoms: _544  and  _545
REMARK  225  A    between atoms: _545  and  _546
REMARK  226  A    between atoms: _555  and  _557
REMARK  227  A    between atoms: _557  and  _558
REMARK  228  A    between atoms: _557  and  _560
REMARK  229  A    between atoms: _563  and  _565
REMARK  230  A    between atoms: _565  and  _566
REMARK  231  A    between atoms: _565  and  _568
REMARK  232  A    between atoms: _568  and  _569
REMARK  233  A    between atoms: _569  and  _570
REMARK  234  A    between atoms: _573  and  _575
REMARK  235  A    between atoms: _575  and  _576
REMARK  236  A    between atoms: _575  and  _578
REMARK  237  A    between atoms: _578  and  _579
REMARK  238  A    between atoms: _582  and  _584
REMARK  239  A    between atoms: _584  and  _585
REMARK  240  A    between atoms: _584  and  _587
REMARK  241  A    between atoms: _587  and  _588
REMARK  242  A    between atoms: _591  and  _593
REMARK  243  A    between atoms: _593  and  _594
REMARK  244  A    between atoms: _593  and  _596
REMARK  245  A    between atoms: _596  and  _597
REMARK                            x       y       z     vdW  Elec       q    Type
REMARK                         _______ _______ _______ _____ _____    ______ ____
ROOT
ATOM      1  O   HOH     1      24.412  17.977 -17.354  0.00  0.00    +0.000 OA
ENDROOT
TORSDOF 0
REMARK  Name = ../refined-set-2016/4oiv/4oiv_pocket.pdb
REMARK  245 active torsions:
REMARK  status: ('A' for Active; 'I' for Inactive)
REMARK    1  A    between atoms: _1  and  _3
REMARK    2  A    between atoms: _3  and  _4
REMARK    3  A    between atoms: _3  and  _6
REMARK    4  A    between atoms: _6  and  _7
REMARK    5  A    between atoms: _12  and  _14
REMARK    6  A    between atoms: _14  and  _15
REMARK    7  A    between atoms: _14  and  _17
REMARK    8  A    between atoms: _17  and  _18
REMARK    9  A    between atoms: _24  and  _26
REMARK   10  A    between atoms: _26  and  _27
REMARK   11  A    between atoms: _26  and  _29
REMARK   12  A    between atoms: _29  and  _30
REMARK   13  A    between atoms: _33  and  _35
REMARK   14  A    between atoms: _35  and  _36
REMARK   15  A    between atoms: _35  and  _38
REMARK   16  A    between atoms: _38  and  _39
REMARK   17  A    between atoms: _42  and  _44
REMARK   18  A    between atoms: _44  and  _45
REMARK   19  A    between atoms: _44  and  _47
REMARK   20  A    between atoms: _47  and  _48
REMARK   21  A    between atoms: _51  and  _53
REMARK   22  A    between atoms: _53  and  _54
REMARK   23  A    between atoms: _53  and  _56
REMARK   24  A    between atoms: _56  and  _57
REMARK   25  A    between atoms: _60  and  _62
REMARK   26  A    between atoms: _62  and  _63
REMARK   27  A    between atoms: _62  and  _65
REMARK   28  A    between atoms: _65  and  _66
REMARK   29  A    between atoms: _66  and  _67
REMARK   30  A    between atoms: _70  and  _72
REMARK   31  A    between atoms: _72  and  _73
REMARK   32  A    between atoms: _72  and  _75
REMARK   33  A    between atoms: _75  and  _76
REMARK   34  A    between atoms: _76  and  _77
REMARK   35  A    between atoms: _79  and  _81
REMARK   36  A    between atoms: _81  and  _82
REMARK   37  A    between atoms: _85  and  _87
REMARK   38  A    between atoms: _87  and  _88
REMARK   39  A    between atoms: _87  and  _90
REMARK   40  A    between atoms: _90  and  _91
REMARK   41  A    between atoms: _94  and  _96
REMARK   42  A    between atoms: _96  and  _97
REMARK   43  A    between atoms: _96  and  _99
REMARK   44  A    between atoms: _99  and  _100
REMARK   45  A    between atoms: _105  and  _107
REMARK   46  A    between atoms: _107  and  _108
REMARK   47  A    between atoms: _107  and  _110
REMARK   48  A    between atoms: _110  and  _111
REMARK   49  A    between atoms: _116  and  _118
REMARK   50  A    between atoms: _118  and  _119
REMARK   51  A    between atoms: _118  and  _121
REMARK   52  A    between atoms: _124  and  _126
REMARK   53  A    between atoms: _126  and  _127
REMARK   54  A    between atoms: _126  and  _129
REMARK   55  A    between atoms: _129  and  _130
REMARK   56  A    between atoms: _130  and  _131
REMARK   57  A    between atoms: _136  and  _138
REMARK   58  A    between atoms: _138  and  _139
REMARK   59  A    between atoms: _138  and  _141
REMARK   60  A    between atoms: _141  and  _142
REMARK   61  A    between atoms: _145  and  _147
REMARK   62  A    between atoms: _147  and  _148
REMARK   63  A    between atoms: _151  and  _153
REMARK   64  A    between atoms: _153  and  _154
REMARK   65  A    between atoms: _153  and  _156
REMARK   66  A    between atoms: _159  and  _161
REMARK   67  A    between atoms: _161  and  _162
REMARK   68  A    between atoms: _161  and  _164
REMARK   69  A    between atoms: _164  and  _165
REMARK   70  A    between atoms: _165  and  _166
REMARK   71  A    between atoms: _169  and  _171
REMARK   72  A    between atoms: _171  and  _172
REMARK   73  A    between atoms: _175  and  _177
REMARK   74  A    between atoms: _177  and  _178
REMARK   75  A    between atoms: _177  and  _180
REMARK   76  A    between atoms: _180  and  _181
REMARK   77  A    between atoms: _181  and  _182
REMARK   78  A    between atoms: _184  and  _186
REMARK   79  A    between atoms: _186  and  _187
REMARK   80  A    between atoms: _186  and  _189
REMARK   81  A    between atoms: _189  and  _190
REMARK   82  A    between atoms: _196  and  _198
REMARK   83  A    between atoms: _198  and  _199
REMARK   84  A    between atoms: _198  and  _201
REMARK   85  A    between atoms: _201  and  _202
REMARK   86  A    between atoms: _205  and  _207
REMARK   87  A    between atoms: _207  and  _208
REMARK   88  A    between atoms: _207  and  _210
REMARK   89  A    between atoms: _210  and  _211
REMARK   90  A    between atoms: _211  and  _212
REMARK   91  A    between atoms: _212  and  _213
REMARK   92  A    between atoms: _222  and  _224
REMARK   93  A    between atoms: _224  and  _225
REMARK   94  A    between atoms: _224  and  _227
REMARK   95  A    between atoms: _227  and  _228
REMARK   96  A    between atoms: _230  and  _232
REMARK   97  A    between atoms: _232  and  _233
REMARK   98  A    between atoms: _236  and  _238
REMARK   99  A    between atoms: _238  and  _239
REMARK  100  A    between atoms: _238  and  _241
REMARK  101  A    between atoms: _241  and  _242
REMARK  102  A    between atoms: _245  and  _247
REMARK  103  A    between atoms: _247  and  _248
REMARK  104  A    between atoms: _247  and  _250
REMARK  105  A    between atoms: _250  and  _251
REMARK  106  A    between atoms: _257  and  _259
REMARK  107  A    between atoms: _259  and  _260
REMARK  108  A    between atoms: _259  and  _262
REMARK  109  A    between atoms: _262  and  _263
REMARK  110  A    between atoms: _266  and  _268
REMARK  111  A    between atoms: _268  and  _269
REMARK  112  A    between atoms: _268  and  _271
REMARK  113  A    between atoms: _271  and  _272
REMARK  114  A    between atoms: _272  and  _273
REMARK  115  A    between atoms: _273  and  _274
REMARK  116  A    between atoms: _283  and  _285
REMARK  117  A    between atoms: _285  and  _286
REMARK  118  A    between atoms: _285  and  _288
REMARK  119  A    between atoms: _288  and  _289
REMARK  120  A    between atoms: _292  and  _294
REMARK  121  A    between atoms: _294  and  _295
REMARK  122  A    between atoms: _294  and  _297
REMARK  123  A    between atoms: _297  and  _298
REMARK  124  A    between atoms: _298  and  _299
REMARK  125  A    between atoms: _299  and  _300
REMARK  126  A    between atoms: _309  and  _311
REMARK  127  A    between atoms: _311  and  _312
REMARK  128  A    between atoms: _311  and  _314
REMARK  129  A    between atoms: _314  and  _315
REMARK  130  A    between atoms: _317  and  _319
REMARK  131  A    between atoms: _319  and  _320
REMARK  132  A    between atoms: _319  and  _322
REMARK  133  A    between atoms: _322  and  _323
REMARK  134  A    between atoms: _326  and  _328
REMARK  135  A    between atoms: _328  and  _329
REMARK  136  A    between atoms: _328  and  _331
REMARK  137  A    between atoms: _331  and  _332
REMARK  138  A    between atoms: _334  and  _336
REMARK  139  A    between atoms: _336  and  _337
REMARK  140  A    between atoms: _336  and  _339
REMARK  141  A    between atoms: _339  and  _340
REMARK  142  A    between atoms: _343  and  _345
REMARK  143  A    between atoms: _345  and  _346
REMARK  144  A    between atoms: _345  and  _348
REMARK  145  A    between atoms: _348  and  _349
REMARK  146  A    between atoms: _349  and  _350
REMARK  147  A    between atoms: _353  and  _355
REMARK  148  A    between atoms: _355  and  _356
REMARK  149  A    between atoms: _355  and  _358
REMARK  150  A    between atoms: _358  and  _359
REMARK  151  A    between atoms: _364  and  _365
REMARK  152  A    between atoms: _367  and  _369
REMARK  153  A    between atoms: _369  and  _370
REMARK  154  A    between atoms: _369  and  _372
REMARK  155  A    between atoms: _372  and  _373
REMARK  156  A    between atoms: _376  and  _378
REMARK  157  A    between atoms: _378  and  _379
REMARK  158  A    between atoms: _378  and  _381
REMARK  159  A    between atoms: _381  and  _382
REMARK  160  A    between atoms: _386  and  _387
REMARK  161  A    between atoms: _392  and  _394
REMARK  162  A    between atoms: _394  and  _395
REMARK  163  A    between atoms: _394  and  _397
REMARK  164  A    between atoms: _397  and  _398
REMARK  165  A    between atoms: _398  and  _399
REMARK  166  A    between atoms: _401  and  _403
REMARK  167  A    between atoms: _403  and  _404
REMARK  168  A    between atoms: _403  and  _406
REMARK  169  A    between atoms: _406  and  _407
REMARK  170  A    between atoms: _413  and  _415
REMARK  171  A    between atoms: _415  and  _416
REMARK  172  A    between atoms: _415  and  _418
REMARK  173  A    between atoms: _418  and  _419
REMARK  174  A    between atoms: _424  and  _425
REMARK  175  A    between atoms: _427  and  _429
REMARK  176  A    between atoms: _429  and  _430
REMARK  177  A    between atoms: _429  and  _432
REMARK  178  A    between atoms: _432  and  _433
REMARK  179  A    between atoms: _438  and  _440
REMARK  180  A    between atoms: _440  and  _441
REMARK  181  A    between atoms: _440  and  _443
REMARK  182  A    between atoms: _443  and  _444
REMARK  183  A    between atoms: _449  and  _451
REMARK  184  A    between atoms: _451  and  _452
REMARK  185  A    between atoms: _451  and  _454
REMARK  186  A    between atoms: _454  and  _455
REMARK  187  A    between atoms: _460  and  _462
REMARK  188  A    between atoms: _462  and  _463
REMARK  189  A    between atoms: _462  and  _465
REMARK  190  A    between atoms: _465  and  _466
REMARK  191  A    between atoms: _471  and  _473
REMARK  192  A    between atoms: _473  and  _474
REMARK  193  A    between atoms: _477  and  _479
REMARK  194  A    between atoms: _479  and  _480
REMARK  195  A    between atoms: _479  and  _482
REMARK  196  A    between atoms: _482  and  _483
REMARK  197  A    between atoms: _483  and  _484
REMARK  198  A    between atoms: _487  and  _489
REMARK  199  A    between atoms: _489  and  _490
REMARK  200  A    between atoms: _489  and  _492
REMARK  201  A    between atoms: _492  and  _493
REMARK  202  A    between atoms: _493  and  _494
REMARK  203  A    between atoms: _496  and  _498
REMARK  204  A    between atoms: _498  and  _499
REMARK  205  A    between atoms: _498  and  _501
REMARK  206  A    between atoms: _501  and  _502
REMARK  207  A    between atoms: _505  and  _507
REMARK  208  A    between atoms: _507  and  _508
REMARK  209  A    between atoms: _507  and  _510
REMARK  210  A    between atoms: _510  and  _511
REMARK  211  A    between atoms: _511  and  _512
REMARK  212  A    between atoms: _514  and  _516
REMARK  213  A    between atoms: _516  and  _517
REMARK  214  A    between atoms: _516  and  _519
REMARK  215  A    between atoms: _519  and  _520
REMARK  216  A    between atoms: _522  and  _524
REMARK  217  A    between atoms: _524  and  _525
REMARK  218  A    between atoms: _524  and  _527
REMARK  219  A    between atoms: _527  and  _528
REMARK  220  A    between atoms: _538  and  _540
REMARK  221  A    between atoms: _540  and  _541
REMARK  222  A    between atoms: _540  and  _543
REMARK  223  A    between atoms: _543  and  _544
REMARK  224  A    between atoms: _544  and  _545
REMARK  225  A    between atoms: _545  and  _546
REMARK  226  A    between atoms: _555  and  _557
REMARK  227  A    between atoms: _557  and  _558
REMARK  228  A    between atoms: _557  and  _560
REMARK  229  A    between atoms: _563  and  _565
REMARK  230  A    between atoms: _565  and  _566
REMARK  231  A    between atoms: _565  and  _568
REMARK  232  A    between atoms: _568  and  _569
REMARK  233  A    between atoms: _569  and  _570
REMARK  234  A    between atoms: _573  and  _575
REMARK  235  A    between atoms: _575  and  _576
REMARK  236  A    between atoms: _575  and  _578
REMARK  237  A    between atoms: _578  and  _579
REMARK  238  A    between atoms: _582  and  _584
REMARK  239  A    between atoms: _584  and  _585
REMARK  240  A    between atoms: _584  and  _587
REMARK  241  A    between atoms: _587  and  _588
REMARK  242  A    between atoms: _591  and  _593
REMARK  243  A    between atoms: _593  and  _594
REMARK  244  A    between atoms: _593  and  _596
REMARK  245  A    between atoms: _596  and  _597
REMARK                            x       y       z     vdW  Elec       q    Type
REMARK                         _______ _______ _______ _____ _____    ______ ____
ROOT
ATOM      1  O   HOH     1      25.202  15.611 -18.801  0.00  0.00    +0.000 OA
ENDROOT
TORSDOF 0
