REMARK  Name = ../refined-set-2016/2usn/2usn_pocket.pdb
REMARK  153 active torsions:
REMARK  status: ('A' for Active; 'I' for Inactive)
REMARK    1  A    between atoms: _1  and  _3
REMARK    2  A    between atoms: _3  and  _4
REMARK    3  A    between atoms: _3  and  _6
REMARK    4  A    between atoms: _6  and  _7
REMARK    5  A    between atoms: _10  and  _12
REMARK    6  A    between atoms: _12  and  _13
REMARK    7  A    between atoms: _12  and  _15
REMARK    8  A    between atoms: _15  and  _16
REMARK    9  A    between atoms: _23  and  _24
REMARK   10  A    between atoms: _29  and  _31
REMARK   11  A    between atoms: _31  and  _32
REMARK   12  A    between atoms: _34  and  _36
REMARK   13  A    between atoms: _36  and  _37
REMARK   14  A    between atoms: _36  and  _39
REMARK   15  A    between atoms: _39  and  _40
REMARK   16  A    between atoms: _44  and  _45
REMARK   17  A    between atoms: _50  and  _52
REMARK   18  A    between atoms: _52  and  _53
REMARK   19  A    between atoms: _52  and  _55
REMARK   20  A    between atoms: _55  and  _56
REMARK   21  A    between atoms: _56  and  _57
REMARK   22  A    between atoms: _57  and  _58
REMARK   23  A    between atoms: _58  and  _59
REMARK   24  A    between atoms: _63  and  _65
REMARK   25  A    between atoms: _65  and  _66
REMARK   26  A    between atoms: _65  and  _68
REMARK   27  A    between atoms: _68  and  _69
REMARK   28  A    between atoms: _73  and  ZN_396
REMARK   29  A    between atoms: _74  and  _76
REMARK   30  A    between atoms: _76  and  _77
REMARK   31  A    between atoms: _76  and  _79
REMARK   32  A    between atoms: _79  and  _80
REMARK   33  A    between atoms: _80  and  _82
REMARK   34  A    between atoms: _82  and  ZN_396
REMARK   35  A    between atoms: _83  and  _85
REMARK   36  A    between atoms: _85  and  _86
REMARK   37  A    between atoms: _85  and  _88
REMARK   38  A    between atoms: _88  and  _89
REMARK   39  A    between atoms: _95  and  _97
REMARK   40  A    between atoms: _97  and  _98
REMARK   41  A    between atoms: _97  and  _100
REMARK   42  A    between atoms: _100  and  _101
REMARK   43  A    between atoms: _106  and  _107
REMARK   44  A    between atoms: _110  and  _111
REMARK   45  A    between atoms: _118  and  _119
REMARK   46  A    between atoms: _118  and  _121
REMARK   47  A    between atoms: _121  and  _122
REMARK   48  A    between atoms: _128  and  _130
REMARK   49  A    between atoms: _130  and  _131
REMARK   50  A    between atoms: _130  and  _133
REMARK   51  A    between atoms: _136  and  _138
REMARK   52  A    between atoms: _138  and  _139
REMARK   53  A    between atoms: _138  and  _141
REMARK   54  A    between atoms: _141  and  _142
REMARK   55  A    between atoms: _145  and  _147
REMARK   56  A    between atoms: _147  and  _148
REMARK   57  A    between atoms: _151  and  _153
REMARK   58  A    between atoms: _153  and  _154
REMARK   59  A    between atoms: _153  and  _156
REMARK   60  A    between atoms: _156  and  _157
REMARK   61  A    between atoms: _161  and  ZN_396
REMARK   62  A    between atoms: _162  and  _164
REMARK   63  A    between atoms: _164  and  _165
REMARK   64  A    between atoms: _168  and  _170
REMARK   65  A    between atoms: _170  and  _171
REMARK   66  A    between atoms: _170  and  _173
REMARK   67  A    between atoms: _173  and  _174
REMARK   68  A    between atoms: _179  and  _180
REMARK   69  A    between atoms: _182  and  _184
REMARK   70  A    between atoms: _184  and  _185
REMARK   71  A    between atoms: _189  and  _190
REMARK   72  A    between atoms: _195  and  _197
REMARK   73  A    between atoms: _197  and  _198
REMARK   74  A    between atoms: _200  and  _202
REMARK   75  A    between atoms: _202  and  _203
REMARK   76  A    between atoms: _202  and  _205
REMARK   77  A    between atoms: _205  and  _206
REMARK   78  A    between atoms: _209  and  _211
REMARK   79  A    between atoms: _211  and  _212
REMARK   80  A    between atoms: _211  and  _214
REMARK   81  A    between atoms: _214  and  _215
REMARK   82  A    between atoms: _220  and  _222
REMARK   83  A    between atoms: _222  and  _223
REMARK   84  A    between atoms: _225  and  _227
REMARK   85  A    between atoms: _227  and  _228
REMARK   86  A    between atoms: _227  and  _230
REMARK   87  A    between atoms: _230  and  _231
REMARK   88  A    between atoms: _234  and  _236
REMARK   89  A    between atoms: _236  and  _237
REMARK   90  A    between atoms: _240  and  _242
REMARK   91  A    between atoms: _242  and  _243
REMARK   92  A    between atoms: _242  and  _245
REMARK   93  A    between atoms: _245  and  _246
REMARK   94  A    between atoms: _247  and  ZN_396
REMARK   95  A    between atoms: _251  and  _253
REMARK   96  A    between atoms: _253  and  _254
REMARK   97  A    between atoms: _253  and  _256
REMARK   98  A    between atoms: _259  and  _261
REMARK   99  A    between atoms: _261  and  _262
REMARK  100  A    between atoms: _261  and  _264
REMARK  101  A    between atoms: _264  and  _265
REMARK  102  A    between atoms: _269  and  ZN_395
REMARK  103  A    between atoms: _270  and  _272
REMARK  104  A    between atoms: _272  and  _273
REMARK  105  A    between atoms: _272  and  _275
REMARK  106  A    between atoms: _275  and  _276
REMARK  107  A    between atoms: _276  and  _277
REMARK  108  A    between atoms: _280  and  _282
REMARK  109  A    between atoms: _282  and  _283
REMARK  110  A    between atoms: _282  and  _285
REMARK  111  A    between atoms: _285  and  _286
REMARK  112  A    between atoms: _289  and  _291
REMARK  113  A    between atoms: _291  and  _292
REMARK  114  A    between atoms: _291  and  _294
REMARK  115  A    between atoms: _294  and  _295
REMARK  116  A    between atoms: _299  and  ZN_395
REMARK  117  A    between atoms: _300  and  _302
REMARK  118  A    between atoms: _302  and  _303
REMARK  119  A    between atoms: _302  and  _305
REMARK  120  A    between atoms: _305  and  _306
REMARK  121  A    between atoms: _308  and  _310
REMARK  122  A    between atoms: _310  and  _311
REMARK  123  A    between atoms: _310  and  _313
REMARK  124  A    between atoms: _313  and  _314
REMARK  125  A    between atoms: _317  and  _319
REMARK  126  A    between atoms: _319  and  _320
REMARK  127  A    between atoms: _319  and  _322
REMARK  128  A    between atoms: _322  and  _323
REMARK  129  A    between atoms: _329  and  _331
REMARK  130  A    between atoms: _331  and  _332
REMARK  131  A    between atoms: _331  and  _334
REMARK  132  A    between atoms: _334  and  _335
REMARK  133  A    between atoms: _339  and  ZN_395
REMARK  134  A    between atoms: _340  and  _342
REMARK  135  A    between atoms: _342  and  _343
REMARK  136  A    between atoms: _342  and  _345
REMARK  137  A    between atoms: _345  and  _346
REMARK  138  A    between atoms: _346  and  _347
REMARK  139  A    between atoms: _349  and  _351
REMARK  140  A    between atoms: _351  and  _352
REMARK  141  A    between atoms: _351  and  _354
REMARK  142  A    between atoms: _354  and  _355
REMARK  143  A    between atoms: _360  and  _361
REMARK  144  A    between atoms: _364  and  _365
REMARK  145  A    between atoms: _370  and  _372
REMARK  146  A    between atoms: _372  and  _373
REMARK  147  A    between atoms: _372  and  _375
REMARK  148  A    between atoms: _375  and  _376
REMARK  149  A    between atoms: _381  and  _382
REMARK  150  A    between atoms: _384  and  _386
REMARK  151  A    between atoms: _386  and  _387
REMARK  152  A    between atoms: _386  and  _389
REMARK  153  A    between atoms: _389  and  _390
REMARK                            x       y       z     vdW  Elec       q    Type
REMARK                         _______ _______ _______ _____ _____    ______ ____
ROOT
ATOM      1  CA  GLY A   4      20.502  37.404  57.683  0.00  0.00    +0.176 C 
ENDROOT
BRANCH   1   3
ATOM      2  C   PRO A   3      21.232  39.478  56.579  0.00  0.00    +0.241 C 
ATOM      3  N   GLY A   4      20.785  38.851  57.690  0.00  0.00    -0.295 N 
ATOM      4  H   GLY A   4      20.639  39.397  58.563  0.00  0.00    +0.150 HD
ATOM      5  O   PRO A   3      21.359  38.911  55.471  0.00  0.00    -0.273 OA
BRANCH   2   9
ATOM      6  C   PHE A   2      23.888  41.107  56.583  0.00  0.00    +0.244 C 
ATOM      7  O   PHE A   2      24.140  40.355  57.541  0.00  0.00    -0.273 OA
ATOM      8  N   PRO A   3      22.683  41.438  56.170  0.00  0.00    -0.272 N 
ATOM      9  CA  PRO A   3      21.465  40.965  56.817  0.00  0.00    +0.152 C 
ATOM     10  CB  PRO A   3      20.367  41.849  56.250  0.00  0.00    +0.031 C 
ATOM     11  CG  PRO A   3      21.057  43.015  55.616  0.00  0.00    +0.024 C 
ATOM     12  CD  PRO A   3      22.366  42.416  55.097  0.00  0.00    +0.094 C 
BRANCH   6  13
ATOM     13  CA  PHE A   2      25.054  41.661  55.753  0.00  0.00    +0.153 C 
BRANCH  13  16
ATOM     14  C   THR A   1      26.394  42.420  57.583  0.00  0.00    +0.241 C 
ATOM     15  O   THR A   1      25.732  43.469  57.731  0.00  0.00    -0.274 OA
ATOM     16  N   PHE A   2      26.246  41.511  56.646  0.00  0.00    -0.297 N 
ATOM     17  H   PHE A   2      26.921  40.729  56.531  0.00  0.00    +0.150 HD
BRANCH  14  18
ATOM     18  CA  THR A   1      27.557  42.179  58.547  0.00  0.00    +0.172 C 
BRANCH  18  19
ATOM     19  N   THR A   1      27.535  43.347  59.443  0.00  0.00    -0.236 NA
ATOM     20  H   THR A   1      26.688  43.522  60.021  0.00  0.00    +0.142 HD
ENDBRANCH  18  19
BRANCH  18  21
ATOM     21  CB  THR A   1      27.388  40.852  59.379  0.00  0.00    +0.135 C 
ATOM     22  CG2 THR A   1      28.403  40.707  60.532  0.00  0.00    +0.034 C 
BRANCH  21  23
ATOM     23  OG1 THR A   1      26.020  40.841  59.904  0.00  0.00    -0.383 OA
ATOM     24  HG1 THR A   1      25.378  40.864  59.150  0.00  0.00    +0.210 HD
ENDBRANCH  21  23
ENDBRANCH  18  21
ENDBRANCH  14  18
ENDBRANCH  13  16
BRANCH  13  25
ATOM     25  CB  PHE A   2      25.275  40.966  54.440  0.00  0.00    +0.055 C 
BRANCH  25  26
ATOM     26  CG  PHE A   2      26.343  41.585  53.590  0.00  0.00    -0.020 A 
ATOM     27  CD2 PHE A   2      27.585  41.009  53.450  0.00  0.00    -0.004 A 
ATOM     28  CE2 PHE A   2      28.531  41.579  52.594  0.00  0.00    -0.000 A 
ATOM     29  CZ  PHE A   2      28.183  42.730  51.860  0.00  0.00    -0.000 A 
ATOM     30  CE1 PHE A   2      26.953  43.337  52.031  0.00  0.00    -0.000 A 
ATOM     31  CD1 PHE A   2      26.023  42.750  52.873  0.00  0.00    -0.004 A 
ENDBRANCH  25  26
ENDBRANCH  13  25
ENDBRANCH   6  13
ENDBRANCH   2   9
ENDBRANCH   1   3
BRANCH   1  32
ATOM     32  C   GLY A   4      21.827  36.685  57.935  0.00  0.00    +0.243 C 
ATOM     33  O   GLY A   4      21.845  35.476  58.171  0.00  0.00    -0.273 OA
ATOM     34  N   ILE A   5      22.880  37.452  57.908  0.00  0.00    -0.297 N 
ATOM     35  H   ILE A   5      22.728  38.459  57.697  0.00  0.00    +0.150 HD
BRANCH  34  36
ATOM     36  CA  ILE A   5      24.242  37.027  58.145  0.00  0.00    +0.149 C 
BRANCH  36  37
ATOM     37  C   ILE A   5      24.743  35.902  57.262  0.00  0.00    +0.244 C 
ATOM     38  O   ILE A   5      25.194  34.857  57.792  0.00  0.00    -0.273 OA
ATOM     39  N   PRO A   6      24.812  36.161  55.981  0.00  0.00    -0.272 N 
ATOM     40  CD  PRO A   6      24.369  37.372  55.267  0.00  0.00    +0.094 C 
ATOM     41  CG  PRO A   6      25.121  37.250  53.932  0.00  0.00    +0.024 C 
ATOM     42  CB  PRO A   6      25.229  35.775  53.711  0.00  0.00    +0.031 C 
ATOM     43  CA  PRO A   6      25.407  35.144  55.075  0.00  0.00    +0.152 C 
BRANCH  43  44
ATOM     44  C   PRO A   6      26.846  34.887  55.501  0.00  0.00    +0.241 C 
ATOM     45  O   PRO A   6      27.626  35.712  56.029  0.00  0.00    -0.273 OA
ATOM     46  N   LYS A   7      27.261  33.623  55.307  0.00  0.00    -0.298 N 
ATOM     47  H   LYS A   7      26.591  32.899  54.977  0.00  0.00    +0.150 HD
BRANCH  46  48
ATOM     48  CA  LYS A   7      28.669  33.266  55.564  0.00  0.00    +0.137 C 
BRANCH  48  49
ATOM     49  C   LYS A   7      28.991  31.954  54.857  0.00  0.00    +0.227 C 
ATOM     50  O   LYS A   7      28.040  31.297  54.374  0.00  0.00    -0.286 OA
ENDBRANCH  48  49
BRANCH  48  51
ATOM     51  CB  LYS A   7      29.063  33.350  57.023  0.00  0.00    +0.028 C 
BRANCH  51  52
ATOM     52  CG  LYS A   7      28.484  32.243  57.869  0.00  0.00    -0.000 C 
BRANCH  52  53
ATOM     53  CD  LYS A   7      28.693  32.491  59.369  0.00  0.00    -0.024 C 
BRANCH  53  54
ATOM     54  CE  LYS A   7      27.643  31.652  60.102  0.00  0.00    -0.086 C 
BRANCH  54  55
ATOM     55  NZ  LYS A   7      27.634  32.039  61.557  0.00  0.00    +0.380 N 
ATOM     56  HZ1 LYS A   7      26.922  31.472  62.061  0.00  0.00    -0.089 HD
ATOM     57  HZ2 LYS A   7      28.573  31.863  61.967  0.00  0.00    -0.089 HD
ATOM     58  HZ3 LYS A   7      27.400  33.049  61.644  0.00  0.00    -0.089 HD
ENDBRANCH  54  55
ENDBRANCH  53  54
ENDBRANCH  52  53
ENDBRANCH  51  52
ENDBRANCH  48  51
ENDBRANCH  46  48
ENDBRANCH  43  44
ENDBRANCH  36  37
BRANCH  36  59
ATOM     59  CB  ILE A   5      24.413  36.555  59.655  0.00  0.00    +0.027 C 
ATOM     60  CG2 ILE A   5      25.919  36.636  60.063  0.00  0.00    +0.002 C 
BRANCH  59  61
ATOM     61  CG1 ILE A   5      23.622  37.589  60.536  0.00  0.00    +0.002 C 
ATOM     62  CD1 ILE A   5      23.717  37.086  62.028  0.00  0.00    +0.000 C 
ENDBRANCH  59  61
ENDBRANCH  36  59
ENDBRANCH  34  36
ENDBRANCH   1  32
TORSDOF 23
REMARK  Name = ../refined-set-2016/2usn/2usn_pocket.pdb
REMARK  153 active torsions:
REMARK  status: ('A' for Active; 'I' for Inactive)
REMARK    1  A    between atoms: _1  and  _3
REMARK    2  A    between atoms: _3  and  _4
REMARK    3  A    between atoms: _3  and  _6
REMARK    4  A    between atoms: _6  and  _7
REMARK    5  A    between atoms: _10  and  _12
REMARK    6  A    between atoms: _12  and  _13
REMARK    7  A    between atoms: _12  and  _15
REMARK    8  A    between atoms: _15  and  _16
REMARK    9  A    between atoms: _23  and  _24
REMARK   10  A    between atoms: _29  and  _31
REMARK   11  A    between atoms: _31  and  _32
REMARK   12  A    between atoms: _34  and  _36
REMARK   13  A    between atoms: _36  and  _37
REMARK   14  A    between atoms: _36  and  _39
REMARK   15  A    between atoms: _39  and  _40
REMARK   16  A    between atoms: _44  and  _45
REMARK   17  A    between atoms: _50  and  _52
REMARK   18  A    between atoms: _52  and  _53
REMARK   19  A    between atoms: _52  and  _55
REMARK   20  A    between atoms: _55  and  _56
REMARK   21  A    between atoms: _56  and  _57
REMARK   22  A    between atoms: _57  and  _58
REMARK   23  A    between atoms: _58  and  _59
REMARK   24  A    between atoms: _63  and  _65
REMARK   25  A    between atoms: _65  and  _66
REMARK   26  A    between atoms: _65  and  _68
REMARK   27  A    between atoms: _68  and  _69
REMARK   28  A    between atoms: _73  and  ZN_396
REMARK   29  A    between atoms: _74  and  _76
REMARK   30  A    between atoms: _76  and  _77
REMARK   31  A    between atoms: _76  and  _79
REMARK   32  A    between atoms: _79  and  _80
REMARK   33  A    between atoms: _80  and  _82
REMARK   34  A    between atoms: _82  and  ZN_396
REMARK   35  A    between atoms: _83  and  _85
REMARK   36  A    between atoms: _85  and  _86
REMARK   37  A    between atoms: _85  and  _88
REMARK   38  A    between atoms: _88  and  _89
REMARK   39  A    between atoms: _95  and  _97
REMARK   40  A    between atoms: _97  and  _98
REMARK   41  A    between atoms: _97  and  _100
REMARK   42  A    between atoms: _100  and  _101
REMARK   43  A    between atoms: _106  and  _107
REMARK   44  A    between atoms: _110  and  _111
REMARK   45  A    between atoms: _118  and  _119
REMARK   46  A    between atoms: _118  and  _121
REMARK   47  A    between atoms: _121  and  _122
REMARK   48  A    between atoms: _128  and  _130
REMARK   49  A    between atoms: _130  and  _131
REMARK   50  A    between atoms: _130  and  _133
REMARK   51  A    between atoms: _136  and  _138
REMARK   52  A    between atoms: _138  and  _139
REMARK   53  A    between atoms: _138  and  _141
REMARK   54  A    between atoms: _141  and  _142
REMARK   55  A    between atoms: _145  and  _147
REMARK   56  A    between atoms: _147  and  _148
REMARK   57  A    between atoms: _151  and  _153
REMARK   58  A    between atoms: _153  and  _154
REMARK   59  A    between atoms: _153  and  _156
REMARK   60  A    between atoms: _156  and  _157
REMARK   61  A    between atoms: _161  and  ZN_396
REMARK   62  A    between atoms: _162  and  _164
REMARK   63  A    between atoms: _164  and  _165
REMARK   64  A    between atoms: _168  and  _170
REMARK   65  A    between atoms: _170  and  _171
REMARK   66  A    between atoms: _170  and  _173
REMARK   67  A    between atoms: _173  and  _174
REMARK   68  A    between atoms: _179  and  _180
REMARK   69  A    between atoms: _182  and  _184
REMARK   70  A    between atoms: _184  and  _185
REMARK   71  A    between atoms: _189  and  _190
REMARK   72  A    between atoms: _195  and  _197
REMARK   73  A    between atoms: _197  and  _198
REMARK   74  A    between atoms: _200  and  _202
REMARK   75  A    between atoms: _202  and  _203
REMARK   76  A    between atoms: _202  and  _205
REMARK   77  A    between atoms: _205  and  _206
REMARK   78  A    between atoms: _209  and  _211
REMARK   79  A    between atoms: _211  and  _212
REMARK   80  A    between atoms: _211  and  _214
REMARK   81  A    between atoms: _214  and  _215
REMARK   82  A    between atoms: _220  and  _222
REMARK   83  A    between atoms: _222  and  _223
REMARK   84  A    between atoms: _225  and  _227
REMARK   85  A    between atoms: _227  and  _228
REMARK   86  A    between atoms: _227  and  _230
REMARK   87  A    between atoms: _230  and  _231
REMARK   88  A    between atoms: _234  and  _236
REMARK   89  A    between atoms: _236  and  _237
REMARK   90  A    between atoms: _240  and  _242
REMARK   91  A    between atoms: _242  and  _243
REMARK   92  A    between atoms: _242  and  _245
REMARK   93  A    between atoms: _245  and  _246
REMARK   94  A    between atoms: _247  and  ZN_396
REMARK   95  A    between atoms: _251  and  _253
REMARK   96  A    between atoms: _253  and  _254
REMARK   97  A    between atoms: _253  and  _256
REMARK   98  A    between atoms: _259  and  _261
REMARK   99  A    between atoms: _261  and  _262
REMARK  100  A    between atoms: _261  and  _264
REMARK  101  A    between atoms: _264  and  _265
REMARK  102  A    between atoms: _269  and  ZN_395
REMARK  103  A    between atoms: _270  and  _272
REMARK  104  A    between atoms: _272  and  _273
REMARK  105  A    between atoms: _272  and  _275
REMARK  106  A    between atoms: _275  and  _276
REMARK  107  A    between atoms: _276  and  _277
REMARK  108  A    between atoms: _280  and  _282
REMARK  109  A    between atoms: _282  and  _283
REMARK  110  A    between atoms: _282  and  _285
REMARK  111  A    between atoms: _285  and  _286
REMARK  112  A    between atoms: _289  and  _291
REMARK  113  A    between atoms: _291  and  _292
REMARK  114  A    between atoms: _291  and  _294
REMARK  115  A    between atoms: _294  and  _295
REMARK  116  A    between atoms: _299  and  ZN_395
REMARK  117  A    between atoms: _300  and  _302
REMARK  118  A    between atoms: _302  and  _303
REMARK  119  A    between atoms: _302  and  _305
REMARK  120  A    between atoms: _305  and  _306
REMARK  121  A    between atoms: _308  and  _310
REMARK  122  A    between atoms: _310  and  _311
REMARK  123  A    between atoms: _310  and  _313
REMARK  124  A    between atoms: _313  and  _314
REMARK  125  A    between atoms: _317  and  _319
REMARK  126  A    between atoms: _319  and  _320
REMARK  127  A    between atoms: _319  and  _322
REMARK  128  A    between atoms: _322  and  _323
REMARK  129  A    between atoms: _329  and  _331
REMARK  130  A    between atoms: _331  and  _332
REMARK  131  A    between atoms: _331  and  _334
REMARK  132  A    between atoms: _334  and  _335
REMARK  133  A    between atoms: _339  and  ZN_395
REMARK  134  A    between atoms: _340  and  _342
REMARK  135  A    between atoms: _342  and  _343
REMARK  136  A    between atoms: _342  and  _345
REMARK  137  A    between atoms: _345  and  _346
REMARK  138  A    between atoms: _346  and  _347
REMARK  139  A    between atoms: _349  and  _351
REMARK  140  A    between atoms: _351  and  _352
REMARK  141  A    between atoms: _351  and  _354
REMARK  142  A    between atoms: _354  and  _355
REMARK  143  A    between atoms: _360  and  _361
REMARK  144  A    between atoms: _364  and  _365
REMARK  145  A    between atoms: _370  and  _372
REMARK  146  A    between atoms: _372  and  _373
REMARK  147  A    between atoms: _372  and  _375
REMARK  148  A    between atoms: _375  and  _376
REMARK  149  A    between atoms: _381  and  _382
REMARK  150  A    between atoms: _384  and  _386
REMARK  151  A    between atoms: _386  and  _387
REMARK  152  A    between atoms: _386  and  _389
REMARK  153  A    between atoms: _389  and  _390
REMARK                            x       y       z     vdW  Elec       q    Type
REMARK                         _______ _______ _______ _____ _____    ______ ____
ROOT
ATOM      1 ZN   UNK A   4      29.706  43.243  38.749  0.00  0.00    +0.000 Zn
ENDROOT
BRANCH   1   2
ATOM      2  N   UNK A   4      29.513  44.799  40.124  0.00  0.00    +0.000 N 
ATOM      3  C   UNK A   4      30.179  44.562  41.326  0.00  0.00    +0.000 A 
ATOM      4  C   UNK A   4      29.895  45.620  42.135  0.00  0.00    +0.000 A 
ATOM      5  N   UNK A   4      29.218  46.538  41.347  0.00  0.00    +0.000 NA
ATOM      6  C   UNK A   4      28.992  45.994  40.167  0.00  0.00    +0.000 A 
BRANCH   4   7
ATOM      7  C   UNK A   4      30.337  45.923  43.535  0.00  0.00    +0.000 C 
BRANCH   7   8
ATOM      8  C   UNK A   4      31.786  45.576  43.840  0.00  0.00    +0.000 C 
BRANCH   8   9
ATOM      9  N   UNK A   4      32.892  46.169  43.090  0.00  0.00    +0.000 N 
ATOM     10  C   TYR A   3      33.252  47.449  43.292  0.00  0.00    +0.000 C 
ATOM     11  O   TYR A   3      32.615  48.230  44.030  0.00  0.00    +0.000 OA
ATOM     12  H   UNK A   4      33.406  45.594  42.392  0.00  0.00    +0.000 HD
BRANCH  10  13
ATOM     13  CA  TYR A   3      34.479  47.899  42.540  0.00  0.00    +0.000 C 
ATOM     14  CB  TYR A   3      35.757  47.307  43.080  0.00  0.00    +0.000 C 
BRANCH  13  15
ATOM     15  N   TYR A   3      34.641  49.370  42.522  0.00  0.00    +0.000 N 
ATOM     16  H   TYR A   3      34.132  49.938  43.230  0.00  0.00    +0.000 HD
ATOM     17  C   PHE A   2      35.404  49.988  41.645  0.00  0.00    +0.000 C 
ATOM     18  O   PHE A   2      36.202  49.386  40.912  0.00  0.00    +0.000 OA
BRANCH  17  19
ATOM     19  CA  PHE A   2      35.522  51.504  41.855  0.00  0.00    +0.000 C 
BRANCH  19  20
ATOM     20  N   PHE A   2      34.233  52.072  42.227  0.00  0.00    +0.000 N 
ATOM     21  H   PHE A   2      33.926  52.016  43.219  0.00  0.00    +0.000 HD
ATOM     22  C   UNK A   1      33.434  52.662  41.336  0.00  0.00    +0.000 C 
ATOM     23  O   UNK A   1      33.716  52.879  40.137  0.00  0.00    +0.000 OA
BRANCH  22  24
ATOM     24  C   UNK A   1      32.084  53.134  41.900  0.00  0.00    +0.000 C 
BRANCH  24  25
ATOM     25  C   UNK A   1      30.903  52.294  41.456  0.00  0.00    +0.000 C 
ATOM     26  C   UNK A   1      29.593  52.677  42.132  0.00  0.00    +0.000 C 
ATOM     27  C   UNK A   1      31.164  50.801  41.705  0.00  0.00    +0.000 C 
ENDBRANCH  24  25
BRANCH  24  28
ATOM     28  N   UNK A   1      31.929  54.564  41.518  0.00  0.00    +0.000 NA
ATOM     29  H   UNK A   1      31.196  54.860  40.842  0.00  0.00    +0.000 HD
ENDBRANCH  24  28
ENDBRANCH  22  24
ENDBRANCH  19  20
BRANCH  19  30
ATOM     30  CB  PHE A   2      36.473  51.737  43.067  0.00  0.00    +0.000 C 
BRANCH  30  31
ATOM     31  CG  PHE A   2      36.639  53.195  43.482  0.00  0.00    +0.000 C 
ATOM     32  CD2 PHE A   2      37.692  53.240  44.554  0.00  0.00    +0.000 C 
ATOM     33  CD1 PHE A   2      37.010  54.063  42.278  0.00  0.00    +0.000 C 
ENDBRANCH  30  31
ENDBRANCH  19  30
ENDBRANCH  17  19
ENDBRANCH  13  15
ENDBRANCH  10  13
ENDBRANCH   8   9
BRANCH   8  34
ATOM     34  C   UNK A   4      31.986  44.076  44.014  0.00  0.00    +0.000 C 
ATOM     35  N   PHE A   5      31.453  43.641  45.140  0.00  0.00    +0.000 N 
ATOM     36  H   PHE A   5      30.955  44.331  45.737  0.00  0.00    +0.000 HD
ATOM     37  O   UNK A   4      32.649  43.346  43.209  0.00  0.00    +0.000 OA
BRANCH  35  38
ATOM     38  CA  PHE A   5      31.513  42.263  45.605  0.00  0.00    +0.000 C 
ATOM     39  CB  PHE A   5      32.763  42.142  46.472  0.00  0.00    +0.000 C 
BRANCH  38  40
ATOM     40  C   PHE A   5      30.261  41.799  46.282  0.00  0.00    +0.000 C 
ATOM     41  O   PHE A   5      29.503  42.604  46.882  0.00  0.00    +0.000 OA
ATOM     42  N   UNK A   6      30.036  40.482  46.167  0.00  0.00    +0.000 N 
ATOM     43  H   UNK A   6      30.731  39.911  45.645  0.00  0.00    +0.000 HD
BRANCH  42  44
ATOM     44  C   UNK A   6      28.876  39.804  46.730  0.00  0.00    +0.000 C 
BRANCH  44  45
ATOM     45  C   UNK A   6      29.144  39.003  47.993  0.00  0.00    +0.000 C 
ATOM     46  N   ALA A   7      28.152  39.007  48.874  0.00  0.00    +0.000 N 
ATOM     47  H   ALA A   7      27.292  39.558  48.676  0.00  0.00    +0.000 HD
ATOM     48  O   UNK A   6      30.099  38.212  48.079  0.00  0.00    +0.000 OA
BRANCH  46  49
ATOM     49  CA  ALA A   7      28.254  38.228  50.151  0.00  0.00    +0.000 C 
ATOM     50  CB  ALA A   7      27.037  38.545  50.989  0.00  0.00    +0.000 C 
BRANCH  49  51
ATOM     51  C   ALA A   7      28.472  36.764  49.819  0.00  0.00    +0.000 C 
ATOM     52  N   PRO A   8      28.876  35.981  50.819  0.00  0.00    +0.000 N 
ATOM     53  CD  PRO A   8      29.120  36.432  52.207  0.00  0.00    +0.000 C 
ATOM     54  CG  PRO A   8      29.998  35.315  52.756  0.00  0.00    +0.000 C 
ATOM     55  CB  PRO A   8      29.551  34.075  52.045  0.00  0.00    +0.000 C 
ATOM     56  CA  PRO A   8      29.173  34.554  50.641  0.00  0.00    +0.000 C 
ATOM     57  O   ALA A   7      28.359  36.336  48.654  0.00  0.00    +0.000 OA
BRANCH  56  58
ATOM     58  C   PRO A   8      27.958  33.844  50.068  0.00  0.00    +0.000 C 
ATOM     59  O   PRO A   8      26.823  34.203  50.408  0.00  0.00    +0.000 OA
ATOM     60  N   GLY A   9      28.122  32.803  49.330  0.00  0.00    +0.000 N 
ATOM     61  H   GLY A   9      29.099  32.479  49.181  0.00  0.00    +0.000 HD
BRANCH  60  62
ATOM     62  CA  GLY A   9      27.056  32.030  48.679  0.00  0.00    +0.000 C 
BRANCH  62  63
ATOM     63  C   GLY A   9      27.633  31.403  47.401  0.00  0.00    +0.000 C 
ATOM     64  O   GLY A   9      28.804  31.633  47.065  0.00  0.00    +0.000 OA
ENDBRANCH  62  63
ENDBRANCH  60  62
ENDBRANCH  56  58
ENDBRANCH  49  51
ENDBRANCH  46  49
ENDBRANCH  44  45
BRANCH  44  65
ATOM     65  C   UNK A   6      28.334  38.807  45.635  0.00  0.00    +0.000 C 
BRANCH  65  66
ATOM     66  C   UNK A   6      27.900  39.610  44.424  0.00  0.00    +0.000 A 
ATOM     67  C   UNK A   6      26.556  39.972  44.291  0.00  0.00    +0.000 A 
ATOM     68  C   UNK A   6      26.161  40.799  43.232  0.00  0.00    +0.000 A 
ATOM     69  C   UNK A   6      27.081  41.161  42.269  0.00  0.00    +0.000 A 
ATOM     70  C   UNK A   6      28.426  40.840  42.416  0.00  0.00    +0.000 A 
ATOM     71  C   UNK A   6      28.832  40.032  43.479  0.00  0.00    +0.000 A 
BRANCH  69  72
ATOM     72  O   UNK A   6      26.646  41.967  41.239  0.00  0.00    +0.000 OA
ATOM     73  H   UNK A   6      27.400  42.150  40.623  0.00  0.00    +0.000 HD
ENDBRANCH  69  72
ENDBRANCH  65  66
ENDBRANCH  44  65
ENDBRANCH  42  44
ENDBRANCH  38  40
ENDBRANCH  35  38
ENDBRANCH   8  34
ENDBRANCH   7   8
ENDBRANCH   4   7
ENDBRANCH   1   2
BRANCH   1  74
ATOM     74  N   UNK A   4      30.912  41.687  39.152  0.00  0.00    +0.000 N 
ATOM     75  C   UNK A   4      32.293  41.724  39.138  0.00  0.00    +0.000 A 
ATOM     76  C   UNK A   4      32.716  40.461  38.936  0.00  0.00    +0.000 A 
ATOM     77  N   UNK A   4      31.612  39.656  38.930  0.00  0.00    +0.000 NA
ATOM     78  C   UNK A   4      30.569  40.433  39.064  0.00  0.00    +0.000 A 
BRANCH  75  79
ATOM     79  C   UNK A   4      33.111  42.997  39.285  0.00  0.00    +0.000 C 
BRANCH  79  80
ATOM     80  C   UNK A   4      34.441  42.771  39.989  0.00  0.00    +0.000 C 
BRANCH  80  81
ATOM     81  N   UNK A   4      34.240  42.120  41.308  0.00  0.00    +0.000 N 
ATOM     82  H   UNK A   4      33.550  42.542  41.963  0.00  0.00    +0.000 HD
ATOM     83  C   PHE A   5      34.883  41.042  41.696  0.00  0.00    +0.000 C 
ATOM     84  O   PHE A   5      35.572  40.386  40.873  0.00  0.00    +0.000 OA
BRANCH  83  85
ATOM     85  CA  PHE A   5      34.604  40.511  43.100  0.00  0.00    +0.000 C 
ATOM     86  CB  PHE A   5      35.830  40.616  44.026  0.00  0.00    +0.000 C 
BRANCH  85  87
ATOM     87  N   PHE A   5      34.125  39.140  43.082  0.00  0.00    +0.000 N 
ATOM     88  C   UNK A   4      32.965  38.712  43.585  0.00  0.00    +0.000 C 
ATOM     89  O   UNK A   4      32.141  39.436  44.123  0.00  0.00    +0.000 OA
ATOM     90  H   PHE A   5      34.740  38.429  42.638  0.00  0.00    +0.000 HD
BRANCH  88  91
ATOM     91  C   UNK A   4      32.675  37.241  43.457  0.00  0.00    +0.000 C 
BRANCH  91  92
ATOM     92  N   UNK A   4      31.842  36.739  44.591  0.00  0.00    +0.000 N 
ATOM     93  C   TYR A   3      32.374  36.417  45.745  0.00  0.00    +0.000 C 
ATOM     94  O   TYR A   3      33.564  36.649  46.012  0.00  0.00    +0.000 OA
ATOM     95  H   UNK A   4      30.815  36.643  44.462  0.00  0.00    +0.000 HD
BRANCH  93  96
ATOM     96  CA  TYR A   3      31.506  35.818  46.844  0.00  0.00    +0.000 C 
BRANCH  96  97
ATOM     97  N   TYR A   3      30.102  35.855  46.541  0.00  0.00    +0.000 N 
ATOM     98  H   TYR A   3      29.543  36.619  46.973  0.00  0.00    +0.000 HD
ATOM     99  C   PHE A   2      29.468  35.016  45.773  0.00  0.00    +0.000 C 
ATOM    100  O   PHE A   2      29.989  34.118  45.128  0.00  0.00    +0.000 OA
BRANCH  99 101
ATOM    101  CA  PHE A   2      27.964  35.274  45.568  0.00  0.00    +0.000 C 
BRANCH 101 102
ATOM    102  N   PHE A   2      27.664  34.869  44.167  0.00  0.00    +0.000 N 
ATOM    103  H   PHE A   2      26.974  34.116  43.969  0.00  0.00    +0.000 HD
ATOM    104  C   UNK A   1      28.305  35.498  43.160  0.00  0.00    +0.000 C 
ATOM    105  O   UNK A   1      29.104  36.463  43.334  0.00  0.00    +0.000 OA
BRANCH 104 106
ATOM    106  C   UNK A   1      27.974  35.000  41.762  0.00  0.00    +0.000 C 
BRANCH 106 107
ATOM    107  C   UNK A   1      27.044  35.981  40.967  0.00  0.00    +0.000 C 
ATOM    108  C   UNK A   1      25.762  36.360  41.723  0.00  0.00    +0.000 C 
BRANCH 107 109
ATOM    109  C   UNK A   1      27.818  37.232  40.523  0.00  0.00    +0.000 C 
ATOM    110  C   UNK A   1      26.887  38.242  39.790  0.00  0.00    +0.000 C 
ENDBRANCH 107 109
ENDBRANCH 106 107
BRANCH 106 111
ATOM    111  N   UNK A   1      27.375  33.654  41.723  0.00  0.00    +0.000 NA
ATOM    112  H   UNK A   1      26.376  33.568  41.446  0.00  0.00    +0.000 HD
ENDBRANCH 106 111
ENDBRANCH 104 106
ENDBRANCH 101 102
BRANCH 101 113
ATOM    113  CB  PHE A   2      27.073  34.551  46.575  0.00  0.00    +0.000 C 
BRANCH 113 114
ATOM    114  CG  PHE A   2      25.610  34.991  46.450  0.00  0.00    +0.000 C 
ATOM    115  ND2 PHE A   2      25.266  36.237  46.746  0.00  0.00    +0.000 N 
ATOM    116 HD21 PHE A   2      25.960  36.879  47.180  0.00  0.00    +0.000 HD
ATOM    117 HD22 PHE A   2      24.303  36.572  46.544  0.00  0.00    +0.000 HD
ATOM    118  OD1 PHE A   2      24.830  34.191  45.936  0.00  0.00    +0.000 OA
ENDBRANCH 113 114
ENDBRANCH 101 113
ENDBRANCH  99 101
ENDBRANCH  96  97
ENDBRANCH  93  96
ENDBRANCH  91  92
BRANCH  91 119
ATOM    119  C   UNK A   4      32.017  36.833  42.147  0.00  0.00    +0.000 C 
BRANCH 119 120
ATOM    120  C   UNK A   4      31.828  35.368  41.896  0.00  0.00    +0.000 C 
ATOM    121  O   UNK A   4      32.147  34.474  42.698  0.00  0.00    +0.000 OA
ATOM    122  O   UNK A   4      31.301  35.071  40.779  0.00  0.00    +0.000 OA
ENDBRANCH 119 120
ENDBRANCH  91 119
ENDBRANCH  88  91
ENDBRANCH  85  87
ENDBRANCH  83  85
ENDBRANCH  80  81
BRANCH  80 123
ATOM    123  C   UNK A   4      35.116  44.127  40.218  0.00  0.00    +0.000 C 
ATOM    124  O   UNK A   6      34.604  44.876  41.054  0.00  0.00    +0.000 OA
ENDBRANCH  80 123
ENDBRANCH  79  80
ENDBRANCH  75  79
ENDBRANCH   1  74
BRANCH   1 127
ATOM    125  C   UNK A   4      30.326  43.885  34.791  0.00  0.00    +0.000 A 
ATOM    126  C   UNK A   4      30.219  43.251  35.977  0.00  0.00    +0.000 A 
ATOM    127  N   UNK A   4      29.976  44.205  36.944  0.00  0.00    +0.000 N 
ATOM    128  C   UNK A   4      29.812  45.334  36.355  0.00  0.00    +0.000 A 
ATOM    129  N   UNK A   4      30.051  45.199  35.063  0.00  0.00    +0.000 NA
BRANCH 125 130
ATOM    130  C   UNK A   4      30.599  43.393  33.408  0.00  0.00    +0.000 C 
BRANCH 130 131
ATOM    131  C   UNK A   4      29.294  43.044  32.602  0.00  0.00    +0.000 C 
BRANCH 131 132
ATOM    132  C   UNK A   4      28.697  41.746  33.008  0.00  0.00    +0.000 C 
ATOM    133  O   UNK A   1      29.414  40.808  33.407  0.00  0.00    +0.000 OA
ENDBRANCH 131 132
BRANCH 131 134
ATOM    134  N   UNK A   4      28.439  44.209  32.513  0.00  0.00    +0.000 NA
ATOM    135  H   UNK A   1      27.671  44.327  33.205  0.00  0.00    +0.000 HD
ENDBRANCH 131 134
ENDBRANCH 130 131
ENDBRANCH 125 130
ENDBRANCH   1 127
BRANCH   1 136
ATOM    136  O   UNK A   4      28.024  42.267  38.472  0.00  0.00    +0.000 OA
BRANCH 136 137
ATOM    137  C   UNK A   4      26.946  42.482  37.856  0.00  0.00    +0.000 C 
ATOM    138  O   UNK A   4      26.733  43.612  37.363  0.00  0.00    +0.000 OA
BRANCH 137 139
ATOM    139  C   UNK A   4      25.957  41.356  37.770  0.00  0.00    +0.000 C 
BRANCH 139 140
ATOM    140  C   UNK A   4      25.027  41.362  36.554  0.00  0.00    +0.000 C 
BRANCH 140 141
ATOM    141  C   UNK A   4      24.136  42.582  36.450  0.00  0.00    +0.000 C 
ATOM    142  N   PHE A   2      23.392  42.892  37.475  0.00  0.00    +0.000 N 
ATOM    143  H   PHE A   2      23.423  42.298  38.328  0.00  0.00    +0.000 HD
ATOM    144  O   UNK A   4      24.255  43.311  35.424  0.00  0.00    +0.000 OA
BRANCH 142 145
ATOM    145  CA  PHE A   2      22.500  44.081  37.444  0.00  0.00    +0.000 C 
BRANCH 145 146
ATOM    146  C   PHE A   2      23.175  45.395  37.783  0.00  0.00    +0.000 C 
ATOM    147  N   TYR A   3      24.480  45.333  37.976  0.00  0.00    +0.000 N 
ATOM    148  H   TYR A   3      25.010  44.455  37.803  0.00  0.00    +0.000 HD
ATOM    149  O   PHE A   2      22.438  46.412  37.962  0.00  0.00    +0.000 OA
BRANCH 147 150
ATOM    150  CA  TYR A   3      25.165  46.569  38.452  0.00  0.00    +0.000 C 
BRANCH 150 151
ATOM    151  C   TYR A   3      26.311  46.996  37.575  0.00  0.00    +0.000 C 
ATOM    152  O   TYR A   3      27.505  46.817  37.894  0.00  0.00    +0.000 OA
ATOM    153  N   UNK A   4      25.939  47.667  36.491  0.00  0.00    +0.000 N 
ATOM    154  C   UNK A   4      24.536  47.910  36.063  0.00  0.00    +0.000 C 
ATOM    155  C   UNK A   4      24.744  48.368  34.604  0.00  0.00    +0.000 C 
ATOM    156  C   UNK A   4      25.958  49.240  34.747  0.00  0.00    +0.000 C 
ATOM    157  C   UNK A   4      26.888  48.248  35.531  0.00  0.00    +0.000 C 
BRANCH 157 158
ATOM    158  C   UNK A   4      27.943  49.123  36.175  0.00  0.00    +0.000 C 
ATOM    159  O   UNK A   4      27.671  49.955  37.036  0.00  0.00    +0.000 OA
ATOM    160  N   PHE A   5      29.164  48.973  35.610  0.00  0.00    +0.000 N 
ATOM    161  CA  PHE A   5      30.239  49.876  36.066  0.00  0.00    +0.000 C 
ATOM    162  H   PHE A   5      29.338  48.250  34.883  0.00  0.00    +0.000 HD
BRANCH 161 163
ATOM    163  C   PHE A   5      29.791  51.245  35.587  0.00  0.00    +0.000 C 
ATOM    164  O   PHE A   5      28.829  51.298  34.773  0.00  0.00    +0.000 OA
ENDBRANCH 161 163
BRANCH 161 165
ATOM    165  CB  PHE A   5      31.633  49.415  36.070  0.00  0.00    +0.000 C 
BRANCH 165 166
ATOM    166  CG  PHE A   5      31.960  48.377  37.113  0.00  0.00    +0.000 A 
ATOM    167  CD2 PHE A   5      31.747  48.679  38.452  0.00  0.00    +0.000 A 
ATOM    168  CE2 PHE A   5      32.105  47.755  39.449  0.00  0.00    +0.000 A 
ATOM    169  CZ  PHE A   5      32.676  46.531  39.088  0.00  0.00    +0.000 A 
ATOM    170  CE1 PHE A   5      32.934  46.250  37.725  0.00  0.00    +0.000 A 
ATOM    171  CD1 PHE A   5      32.571  47.180  36.758  0.00  0.00    +0.000 A 
ENDBRANCH 165 166
ENDBRANCH 161 165
ENDBRANCH 157 158
ENDBRANCH 150 151
BRANCH 150 172
ATOM    172  CB  TYR A   3      25.601  46.234  39.892  0.00  0.00    +0.000 C 
BRANCH 172 173
ATOM    173  CG  TYR A   3      24.416  45.778  40.724  0.00  0.00    +0.000 A 
ATOM    174  CD2 TYR A   3      23.541  46.706  41.278  0.00  0.00    +0.000 A 
ATOM    175  CE2 TYR A   3      22.465  46.310  42.076  0.00  0.00    +0.000 A 
ATOM    176  CZ  TYR A   3      22.320  44.959  42.374  0.00  0.00    +0.000 A 
ATOM    177  CE1 TYR A   3      23.149  44.009  41.780  0.00  0.00    +0.000 A 
ATOM    178  CD1 TYR A   3      24.204  44.426  40.977  0.00  0.00    +0.000 A 
BRANCH 176 179
ATOM    179  OH  TYR A   3      21.301  44.505  43.161  0.00  0.00    +0.000 OA
ATOM    180  HH  TYR A   3      20.793  45.276  43.518  0.00  0.00    +0.000 HD
ENDBRANCH 176 179
ENDBRANCH 172 173
ENDBRANCH 150 172
ENDBRANCH 147 150
ENDBRANCH 145 146
BRANCH 145 181
ATOM    181  CB  PHE A   2      21.409  43.911  38.537  0.00  0.00    +0.000 C 
BRANCH 181 182
ATOM    182  CG  PHE A   2      20.529  42.725  38.251  0.00  0.00    +0.000 A 
ATOM    183  CD2 PHE A   2      20.328  41.736  39.187  0.00  0.00    +0.000 A 
ATOM    184  CE2 PHE A   2      19.468  40.665  38.905  0.00  0.00    +0.000 A 
ATOM    185  CZ  PHE A   2      18.813  40.629  37.643  0.00  0.00    +0.000 A 
ATOM    186  CE1 PHE A   2      19.044  41.628  36.689  0.00  0.00    +0.000 A 
ATOM    187  CD1 PHE A   2      19.867  42.696  37.017  0.00  0.00    +0.000 A 
ENDBRANCH 181 182
ENDBRANCH 145 181
ENDBRANCH 142 145
ENDBRANCH 140 141
BRANCH 140 188
ATOM    188  N   UNK A   4      25.763  41.332  35.260  0.00  0.00    +0.000 NA
ATOM    189  H   UNK A   1      26.082  42.237  34.858  0.00  0.00    +0.000 HD
ENDBRANCH 140 188
ENDBRANCH 139 140
ENDBRANCH 137 139
ENDBRANCH 136 137
ENDBRANCH   1 136
TORSDOF 71
REMARK  Name = ../refined-set-2016/2usn/2usn_pocket.pdb
REMARK  153 active torsions:
REMARK  status: ('A' for Active; 'I' for Inactive)
REMARK    1  A    between atoms: _1  and  _3
REMARK    2  A    between atoms: _3  and  _4
REMARK    3  A    between atoms: _3  and  _6
REMARK    4  A    between atoms: _6  and  _7
REMARK    5  A    between atoms: _10  and  _12
REMARK    6  A    between atoms: _12  and  _13
REMARK    7  A    between atoms: _12  and  _15
REMARK    8  A    between atoms: _15  and  _16
REMARK    9  A    between atoms: _23  and  _24
REMARK   10  A    between atoms: _29  and  _31
REMARK   11  A    between atoms: _31  and  _32
REMARK   12  A    between atoms: _34  and  _36
REMARK   13  A    between atoms: _36  and  _37
REMARK   14  A    between atoms: _36  and  _39
REMARK   15  A    between atoms: _39  and  _40
REMARK   16  A    between atoms: _44  and  _45
REMARK   17  A    between atoms: _50  and  _52
REMARK   18  A    between atoms: _52  and  _53
REMARK   19  A    between atoms: _52  and  _55
REMARK   20  A    between atoms: _55  and  _56
REMARK   21  A    between atoms: _56  and  _57
REMARK   22  A    between atoms: _57  and  _58
REMARK   23  A    between atoms: _58  and  _59
REMARK   24  A    between atoms: _63  and  _65
REMARK   25  A    between atoms: _65  and  _66
REMARK   26  A    between atoms: _65  and  _68
REMARK   27  A    between atoms: _68  and  _69
REMARK   28  A    between atoms: _73  and  ZN_396
REMARK   29  A    between atoms: _74  and  _76
REMARK   30  A    between atoms: _76  and  _77
REMARK   31  A    between atoms: _76  and  _79
REMARK   32  A    between atoms: _79  and  _80
REMARK   33  A    between atoms: _80  and  _82
REMARK   34  A    between atoms: _82  and  ZN_396
REMARK   35  A    between atoms: _83  and  _85
REMARK   36  A    between atoms: _85  and  _86
REMARK   37  A    between atoms: _85  and  _88
REMARK   38  A    between atoms: _88  and  _89
REMARK   39  A    between atoms: _95  and  _97
REMARK   40  A    between atoms: _97  and  _98
REMARK   41  A    between atoms: _97  and  _100
REMARK   42  A    between atoms: _100  and  _101
REMARK   43  A    between atoms: _106  and  _107
REMARK   44  A    between atoms: _110  and  _111
REMARK   45  A    between atoms: _118  and  _119
REMARK   46  A    between atoms: _118  and  _121
REMARK   47  A    between atoms: _121  and  _122
REMARK   48  A    between atoms: _128  and  _130
REMARK   49  A    between atoms: _130  and  _131
REMARK   50  A    between atoms: _130  and  _133
REMARK   51  A    between atoms: _136  and  _138
REMARK   52  A    between atoms: _138  and  _139
REMARK   53  A    between atoms: _138  and  _141
REMARK   54  A    between atoms: _141  and  _142
REMARK   55  A    between atoms: _145  and  _147
REMARK   56  A    between atoms: _147  and  _148
REMARK   57  A    between atoms: _151  and  _153
REMARK   58  A    between atoms: _153  and  _154
REMARK   59  A    between atoms: _153  and  _156
REMARK   60  A    between atoms: _156  and  _157
REMARK   61  A    between atoms: _161  and  ZN_396
REMARK   62  A    between atoms: _162  and  _164
REMARK   63  A    between atoms: _164  and  _165
REMARK   64  A    between atoms: _168  and  _170
REMARK   65  A    between atoms: _170  and  _171
REMARK   66  A    between atoms: _170  and  _173
REMARK   67  A    between atoms: _173  and  _174
REMARK   68  A    between atoms: _179  and  _180
REMARK   69  A    between atoms: _182  and  _184
REMARK   70  A    between atoms: _184  and  _185
REMARK   71  A    between atoms: _189  and  _190
REMARK   72  A    between atoms: _195  and  _197
REMARK   73  A    between atoms: _197  and  _198
REMARK   74  A    between atoms: _200  and  _202
REMARK   75  A    between atoms: _202  and  _203
REMARK   76  A    between atoms: _202  and  _205
REMARK   77  A    between atoms: _205  and  _206
REMARK   78  A    between atoms: _209  and  _211
REMARK   79  A    between atoms: _211  and  _212
REMARK   80  A    between atoms: _211  and  _214
REMARK   81  A    between atoms: _214  and  _215
REMARK   82  A    between atoms: _220  and  _222
REMARK   83  A    between atoms: _222  and  _223
REMARK   84  A    between atoms: _225  and  _227
REMARK   85  A    between atoms: _227  and  _228
REMARK   86  A    between atoms: _227  and  _230
REMARK   87  A    between atoms: _230  and  _231
REMARK   88  A    between atoms: _234  and  _236
REMARK   89  A    between atoms: _236  and  _237
REMARK   90  A    between atoms: _240  and  _242
REMARK   91  A    between atoms: _242  and  _243
REMARK   92  A    between atoms: _242  and  _245
REMARK   93  A    between atoms: _245  and  _246
REMARK   94  A    between atoms: _247  and  ZN_396
REMARK   95  A    between atoms: _251  and  _253
REMARK   96  A    between atoms: _253  and  _254
REMARK   97  A    between atoms: _253  and  _256
REMARK   98  A    between atoms: _259  and  _261
REMARK   99  A    between atoms: _261  and  _262
REMARK  100  A    between atoms: _261  and  _264
REMARK  101  A    between atoms: _264  and  _265
REMARK  102  A    between atoms: _269  and  ZN_395
REMARK  103  A    between atoms: _270  and  _272
REMARK  104  A    between atoms: _272  and  _273
REMARK  105  A    between atoms: _272  and  _275
REMARK  106  A    between atoms: _275  and  _276
REMARK  107  A    between atoms: _276  and  _277
REMARK  108  A    between atoms: _280  and  _282
REMARK  109  A    between atoms: _282  and  _283
REMARK  110  A    between atoms: _282  and  _285
REMARK  111  A    between atoms: _285  and  _286
REMARK  112  A    between atoms: _289  and  _291
REMARK  113  A    between atoms: _291  and  _292
REMARK  114  A    between atoms: _291  and  _294
REMARK  115  A    between atoms: _294  and  _295
REMARK  116  A    between atoms: _299  and  ZN_395
REMARK  117  A    between atoms: _300  and  _302
REMARK  118  A    between atoms: _302  and  _303
REMARK  119  A    between atoms: _302  and  _305
REMARK  120  A    between atoms: _305  and  _306
REMARK  121  A    between atoms: _308  and  _310
REMARK  122  A    between atoms: _310  and  _311
REMARK  123  A    between atoms: _310  and  _313
REMARK  124  A    between atoms: _313  and  _314
REMARK  125  A    between atoms: _317  and  _319
REMARK  126  A    between atoms: _319  and  _320
REMARK  127  A    between atoms: _319  and  _322
REMARK  128  A    between atoms: _322  and  _323
REMARK  129  A    between atoms: _329  and  _331
REMARK  130  A    between atoms: _331  and  _332
REMARK  131  A    between atoms: _331  and  _334
REMARK  132  A    between atoms: _334  and  _335
REMARK  133  A    between atoms: _339  and  ZN_395
REMARK  134  A    between atoms: _340  and  _342
REMARK  135  A    between atoms: _342  and  _343
REMARK  136  A    between atoms: _342  and  _345
REMARK  137  A    between atoms: _345  and  _346
REMARK  138  A    between atoms: _346  and  _347
REMARK  139  A    between atoms: _349  and  _351
REMARK  140  A    between atoms: _351  and  _352
REMARK  141  A    between atoms: _351  and  _354
REMARK  142  A    between atoms: _354  and  _355
REMARK  143  A    between atoms: _360  and  _361
REMARK  144  A    between atoms: _364  and  _365
REMARK  145  A    between atoms: _370  and  _372
REMARK  146  A    between atoms: _372  and  _373
REMARK  147  A    between atoms: _372  and  _375
REMARK  148  A    between atoms: _375  and  _376
REMARK  149  A    between atoms: _381  and  _382
REMARK  150  A    between atoms: _384  and  _386
REMARK  151  A    between atoms: _386  and  _387
REMARK  152  A    between atoms: _386  and  _389
REMARK  153  A    between atoms: _389  and  _390
REMARK                            x       y       z     vdW  Elec       q    Type
REMARK                         _______ _______ _______ _____ _____    ______ ____
ROOT
ATOM      1  CA  VAL A   1      40.509  47.979  47.164  0.00  0.00    +0.133 C 
ENDROOT
BRANCH   1   2
ATOM      2  CB  VAL A   1      40.268  48.634  45.800  0.00  0.00    +0.023 C 
ATOM      3  CG2 VAL A   1      40.568  50.160  45.860  0.00  0.00    +0.002 C 
ATOM      4  CG1 VAL A   1      38.815  48.466  45.322  0.00  0.00    +0.002 C 
ENDBRANCH   1   2
BRANCH   1   5
ATOM      5  N   VAL A   1      41.897  48.164  47.644  0.00  0.00    -0.239 NA
ATOM      6  H   VAL A   1      42.622  48.479  46.968  0.00  0.00    +0.142 HD
ENDBRANCH   1   5
BRANCH   1   7
ATOM      7  C   VAL A   1      40.173  46.484  47.279  0.00  0.00    +0.224 C 
ATOM      8  O   VAL A   1      39.089  46.154  47.770  0.00  0.00    -0.287 OA
ENDBRANCH   1   7
TORSDOF 3
REMARK  Name = ../refined-set-2016/2usn/2usn_pocket.pdb
REMARK  153 active torsions:
REMARK  status: ('A' for Active; 'I' for Inactive)
REMARK    1  A    between atoms: _1  and  _3
REMARK    2  A    between atoms: _3  and  _4
REMARK    3  A    between atoms: _3  and  _6
REMARK    4  A    between atoms: _6  and  _7
REMARK    5  A    between atoms: _10  and  _12
REMARK    6  A    between atoms: _12  and  _13
REMARK    7  A    between atoms: _12  and  _15
REMARK    8  A    between atoms: _15  and  _16
REMARK    9  A    between atoms: _23  and  _24
REMARK   10  A    between atoms: _29  and  _31
REMARK   11  A    between atoms: _31  and  _32
REMARK   12  A    between atoms: _34  and  _36
REMARK   13  A    between atoms: _36  and  _37
REMARK   14  A    between atoms: _36  and  _39
REMARK   15  A    between atoms: _39  and  _40
REMARK   16  A    between atoms: _44  and  _45
REMARK   17  A    between atoms: _50  and  _52
REMARK   18  A    between atoms: _52  and  _53
REMARK   19  A    between atoms: _52  and  _55
REMARK   20  A    between atoms: _55  and  _56
REMARK   21  A    between atoms: _56  and  _57
REMARK   22  A    between atoms: _57  and  _58
REMARK   23  A    between atoms: _58  and  _59
REMARK   24  A    between atoms: _63  and  _65
REMARK   25  A    between atoms: _65  and  _66
REMARK   26  A    between atoms: _65  and  _68
REMARK   27  A    between atoms: _68  and  _69
REMARK   28  A    between atoms: _73  and  ZN_396
REMARK   29  A    between atoms: _74  and  _76
REMARK   30  A    between atoms: _76  and  _77
REMARK   31  A    between atoms: _76  and  _79
REMARK   32  A    between atoms: _79  and  _80
REMARK   33  A    between atoms: _80  and  _82
REMARK   34  A    between atoms: _82  and  ZN_396
REMARK   35  A    between atoms: _83  and  _85
REMARK   36  A    between atoms: _85  and  _86
REMARK   37  A    between atoms: _85  and  _88
REMARK   38  A    between atoms: _88  and  _89
REMARK   39  A    between atoms: _95  and  _97
REMARK   40  A    between atoms: _97  and  _98
REMARK   41  A    between atoms: _97  and  _100
REMARK   42  A    between atoms: _100  and  _101
REMARK   43  A    between atoms: _106  and  _107
REMARK   44  A    between atoms: _110  and  _111
REMARK   45  A    between atoms: _118  and  _119
REMARK   46  A    between atoms: _118  and  _121
REMARK   47  A    between atoms: _121  and  _122
REMARK   48  A    between atoms: _128  and  _130
REMARK   49  A    between atoms: _130  and  _131
REMARK   50  A    between atoms: _130  and  _133
REMARK   51  A    between atoms: _136  and  _138
REMARK   52  A    between atoms: _138  and  _139
REMARK   53  A    between atoms: _138  and  _141
REMARK   54  A    between atoms: _141  and  _142
REMARK   55  A    between atoms: _145  and  _147
REMARK   56  A    between atoms: _147  and  _148
REMARK   57  A    between atoms: _151  and  _153
REMARK   58  A    between atoms: _153  and  _154
REMARK   59  A    between atoms: _153  and  _156
REMARK   60  A    between atoms: _156  and  _157
REMARK   61  A    between atoms: _161  and  ZN_396
REMARK   62  A    between atoms: _162  and  _164
REMARK   63  A    between atoms: _164  and  _165
REMARK   64  A    between atoms: _168  and  _170
REMARK   65  A    between atoms: _170  and  _171
REMARK   66  A    between atoms: _170  and  _173
REMARK   67  A    between atoms: _173  and  _174
REMARK   68  A    between atoms: _179  and  _180
REMARK   69  A    between atoms: _182  and  _184
REMARK   70  A    between atoms: _184  and  _185
REMARK   71  A    between atoms: _189  and  _190
REMARK   72  A    between atoms: _195  and  _197
REMARK   73  A    between atoms: _197  and  _198
REMARK   74  A    between atoms: _200  and  _202
REMARK   75  A    between atoms: _202  and  _203
REMARK   76  A    between atoms: _202  and  _205
REMARK   77  A    between atoms: _205  and  _206
REMARK   78  A    between atoms: _209  and  _211
REMARK   79  A    between atoms: _211  and  _212
REMARK   80  A    between atoms: _211  and  _214
REMARK   81  A    between atoms: _214  and  _215
REMARK   82  A    between atoms: _220  and  _222
REMARK   83  A    between atoms: _222  and  _223
REMARK   84  A    between atoms: _225  and  _227
REMARK   85  A    between atoms: _227  and  _228
REMARK   86  A    between atoms: _227  and  _230
REMARK   87  A    between atoms: _230  and  _231
REMARK   88  A    between atoms: _234  and  _236
REMARK   89  A    between atoms: _236  and  _237
REMARK   90  A    between atoms: _240  and  _242
REMARK   91  A    between atoms: _242  and  _243
REMARK   92  A    between atoms: _242  and  _245
REMARK   93  A    between atoms: _245  and  _246
REMARK   94  A    between atoms: _247  and  ZN_396
REMARK   95  A    between atoms: _251  and  _253
REMARK   96  A    between atoms: _253  and  _254
REMARK   97  A    between atoms: _253  and  _256
REMARK   98  A    between atoms: _259  and  _261
REMARK   99  A    between atoms: _261  and  _262
REMARK  100  A    between atoms: _261  and  _264
REMARK  101  A    between atoms: _264  and  _265
REMARK  102  A    between atoms: _269  and  ZN_395
REMARK  103  A    between atoms: _270  and  _272
REMARK  104  A    between atoms: _272  and  _273
REMARK  105  A    between atoms: _272  and  _275
REMARK  106  A    between atoms: _275  and  _276
REMARK  107  A    between atoms: _276  and  _277
REMARK  108  A    between atoms: _280  and  _282
REMARK  109  A    between atoms: _282  and  _283
REMARK  110  A    between atoms: _282  and  _285
REMARK  111  A    between atoms: _285  and  _286
REMARK  112  A    between atoms: _289  and  _291
REMARK  113  A    between atoms: _291  and  _292
REMARK  114  A    between atoms: _291  and  _294
REMARK  115  A    between atoms: _294  and  _295
REMARK  116  A    between atoms: _299  and  ZN_395
REMARK  117  A    between atoms: _300  and  _302
REMARK  118  A    between atoms: _302  and  _303
REMARK  119  A    between atoms: _302  and  _305
REMARK  120  A    between atoms: _305  and  _306
REMARK  121  A    between atoms: _308  and  _310
REMARK  122  A    between atoms: _310  and  _311
REMARK  123  A    between atoms: _310  and  _313
REMARK  124  A    between atoms: _313  and  _314
REMARK  125  A    between atoms: _317  and  _319
REMARK  126  A    between atoms: _319  and  _320
REMARK  127  A    between atoms: _319  and  _322
REMARK  128  A    between atoms: _322  and  _323
REMARK  129  A    between atoms: _329  and  _331
REMARK  130  A    between atoms: _331  and  _332
REMARK  131  A    between atoms: _331  and  _334
REMARK  132  A    between atoms: _334  and  _335
REMARK  133  A    between atoms: _339  and  ZN_395
REMARK  134  A    between atoms: _340  and  _342
REMARK  135  A    between atoms: _342  and  _343
REMARK  136  A    between atoms: _342  and  _345
REMARK  137  A    between atoms: _345  and  _346
REMARK  138  A    between atoms: _346  and  _347
REMARK  139  A    between atoms: _349  and  _351
REMARK  140  A    between atoms: _351  and  _352
REMARK  141  A    between atoms: _351  and  _354
REMARK  142  A    between atoms: _354  and  _355
REMARK  143  A    between atoms: _360  and  _361
REMARK  144  A    between atoms: _364  and  _365
REMARK  145  A    between atoms: _370  and  _372
REMARK  146  A    between atoms: _372  and  _373
REMARK  147  A    between atoms: _372  and  _375
REMARK  148  A    between atoms: _375  and  _376
REMARK  149  A    between atoms: _381  and  _382
REMARK  150  A    between atoms: _384  and  _386
REMARK  151  A    between atoms: _386  and  _387
REMARK  152  A    between atoms: _386  and  _389
REMARK  153  A    between atoms: _389  and  _390
REMARK                            x       y       z     vdW  Elec       q    Type
REMARK                         _______ _______ _______ _____ _____    ______ ____
ROOT
ATOM      1 ZN   UNK A   3      32.528  48.466  50.702  0.00  0.00    +0.000 Zn
ENDROOT
BRANCH   1   5
ATOM      2  C   UNK A   1      36.609  47.859  51.223  0.00  0.00    +0.000 A 
ATOM      3  N   UNK A   1      36.203  48.531  52.344  0.00  0.00    +0.000 NA
ATOM      4  C   UNK A   1      34.924  48.810  52.277  0.00  0.00    +0.000 A 
ATOM      5  N   UNK A   1      34.452  48.384  51.108  0.00  0.00    +0.000 N 
ATOM      6  C   UNK A   1      35.515  47.822  50.416  0.00  0.00    +0.000 A 
BRANCH   2   7
ATOM      7  C   UNK A   1      37.980  47.345  50.983  0.00  0.00    +0.000 C 
BRANCH   7   8
ATOM      8  C   UNK A   1      38.192  45.830  51.257  0.00  0.00    +0.000 C 
BRANCH   8   9
ATOM      9  C   UNK A   1      37.086  45.018  50.620  0.00  0.00    +0.000 C 
ATOM     10  O   UNK A   1      36.116  44.528  51.285  0.00  0.00    +0.000 OA
ATOM     11  N   GLU A   2      37.162  44.764  49.324  0.00  0.00    +0.000 N 
ATOM     12  H   GLU A   2      37.969  45.159  48.801  0.00  0.00    +0.000 HD
BRANCH  11  13
ATOM     13  CA  GLU A   2      36.200  43.974  48.582  0.00  0.00    +0.000 C 
BRANCH  13  14
ATOM     14  C   GLU A   2      36.120  42.554  49.118  0.00  0.00    +0.000 C 
ATOM     15  N   UNK A   3      37.204  41.940  49.508  0.00  0.00    +0.000 N 
ATOM     16  H   UNK A   3      38.106  42.449  49.415  0.00  0.00    +0.000 HD
ATOM     17  O   GLU A   2      34.964  42.060  49.223  0.00  0.00    +0.000 OA
BRANCH  15  18
ATOM     18  C   UNK A   3      37.243  40.570  50.074  0.00  0.00    +0.000 C 
BRANCH  18  19
ATOM     19  C   UNK A   3      38.669  39.953  49.973  0.00  0.00    +0.000 C 
ATOM     20  C   UNK A   3      38.966  38.701  50.805  0.00  0.00    +0.000 C 
BRANCH  19  21
ATOM     21  C   UNK A   3      38.918  39.638  48.438  0.00  0.00    +0.000 C 
ATOM     22  C   UNK A   3      40.439  39.435  48.225  0.00  0.00    +0.000 C 
ENDBRANCH  19  21
ENDBRANCH  18  19
BRANCH  18  23
ATOM     23  C   UNK A   3      36.582  40.516  51.436  0.00  0.00    +0.000 C 
ATOM     24  O   UNK A   3      36.001  39.474  51.811  0.00  0.00    +0.000 OA
ENDBRANCH  18  23
ENDBRANCH  15  18
ENDBRANCH  13  14
BRANCH  13  25
ATOM     25  CB  GLU A   2      36.401  44.014  47.064  0.00  0.00    +0.000 C 
BRANCH  25  26
ATOM     26  CG  GLU A   2      36.148  45.389  46.430  0.00  0.00    +0.000 C 
BRANCH  26  27
ATOM     27  CD  GLU A   2      34.788  45.963  46.696  0.00  0.00    +0.000 C 
ATOM     28  OE2 GLU A   2      33.777  45.325  46.888  0.00  0.00    +0.000 OA
ATOM     29  OE1 GLU A   2      34.724  47.212  46.694  0.00  0.00    +0.000 OA
ENDBRANCH  26  27
ENDBRANCH  25  26
ENDBRANCH  13  25
ENDBRANCH  11  13
ENDBRANCH   8   9
BRANCH   8  30
ATOM     30  N   UNK A   1      39.547  45.404  50.881  0.00  0.00    +0.000 NA
ATOM     31  H   UNK A   1      40.119  46.027  50.275  0.00  0.00    +0.000 HD
ENDBRANCH   8  30
ENDBRANCH   7   8
ENDBRANCH   2   7
ENDBRANCH   1   5
BRANCH   1  32
ATOM     32  N   UNK A   3      31.467  49.618  51.915  0.00  0.00    +0.000 N 
ATOM     33  C   UNK A   3      31.617  49.442  53.270  0.00  0.00    +0.000 A 
ATOM     34  C   UNK A   3      30.487  49.893  53.876  0.00  0.00    +0.000 A 
ATOM     35  N   UNK A   3      29.644  50.276  52.827  0.00  0.00    +0.000 NA
ATOM     36  C   UNK A   3      30.295  50.130  51.711  0.00  0.00    +0.000 A 
BRANCH  34  37
ATOM     37  C   UNK A   3      30.135  49.994  55.322  0.00  0.00    +0.000 C 
BRANCH  37  38
ATOM     38  C   UNK A   3      30.393  48.735  56.148  0.00  0.00    +0.000 C 
BRANCH  38  39
ATOM     39  N   UNK A   3      29.676  47.518  55.785  0.00  0.00    +0.000 N 
ATOM     40  C   GLU A   2      30.164  46.311  55.956  0.00  0.00    +0.000 C 
ATOM     41  O   GLU A   2      31.325  46.141  56.380  0.00  0.00    +0.000 OA
ATOM     42  H   UNK A   3      28.728  47.611  55.368  0.00  0.00    +0.000 HD
BRANCH  40  43
ATOM     43  CA  GLU A   2      29.367  45.111  55.497  0.00  0.00    +0.000 C 
BRANCH  43  44
ATOM     44  N   GLU A   2      29.918  43.917  56.190  0.00  0.00    +0.000 N 
ATOM     45  H   GLU A   2      29.711  43.758  57.197  0.00  0.00    +0.000 HD
ATOM     46  C   UNK A   1      30.664  43.065  55.533  0.00  0.00    +0.000 C 
ATOM     47  O   UNK A   1      31.040  43.122  54.353  0.00  0.00    +0.000 OA
BRANCH  46  48
ATOM     48  C   UNK A   1      31.286  41.953  56.424  0.00  0.00    +0.000 C 
BRANCH  48  49
ATOM     49  N   UNK A   1      31.293  40.685  55.710  0.00  0.00    +0.000 NA
ATOM     50  H   UNK A   1      32.115  40.451  55.118  0.00  0.00    +0.000 HD
ENDBRANCH  48  49
BRANCH  48  51
ATOM     51  C   UNK A   1      32.671  42.423  56.868  0.00  0.00    +0.000 C 
BRANCH  51  52
ATOM     52  C   UNK A   1      33.438  41.708  57.959  0.00  0.00    +0.000 C 
ATOM     53  C   UNK A   1      32.503  41.609  59.164  0.00  0.00    +0.000 C 
ATOM     54  C   UNK A   1      34.689  42.508  58.324  0.00  0.00    +0.000 C 
ENDBRANCH  51  52
ENDBRANCH  48  51
ENDBRANCH  46  48
ENDBRANCH  43  44
BRANCH  43  55
ATOM     55  CB  GLU A   2      27.860  45.196  55.542  0.00  0.00    +0.000 C 
BRANCH  55  56
ATOM     56  CG  GLU A   2      27.286  46.250  54.671  0.00  0.00    +0.000 A 
ATOM     57  CD2 GLU A   2      26.652  47.376  55.205  0.00  0.00    +0.000 A 
ATOM     58  CE2 GLU A   2      26.113  48.349  54.344  0.00  0.00    +0.000 A 
ATOM     59  CZ  GLU A   2      26.306  48.230  52.955  0.00  0.00    +0.000 A 
ATOM     60  CE1 GLU A   2      26.934  47.103  52.426  0.00  0.00    +0.000 A 
ATOM     61  CD1 GLU A   2      27.424  46.117  53.284  0.00  0.00    +0.000 A 
ENDBRANCH  55  56
ENDBRANCH  43  55
ENDBRANCH  40  43
ENDBRANCH  38  39
BRANCH  38  62
ATOM     62  C   UNK A   3      30.326  49.045  57.642  0.00  0.00    +0.000 C 
ATOM     63  O   UNK A   3      29.323  48.863  58.334  0.00  0.00    +0.000 OA
ENDBRANCH  38  62
ENDBRANCH  37  38
ENDBRANCH  34  37
ENDBRANCH   1  32
BRANCH   1  64
ATOM     64  N   UNK A   3      32.192  46.411  50.982  0.00  0.00    +0.000 N 
ATOM     65  C   UNK A   3      31.402  46.071  51.997  0.00  0.00    +0.000 A 
ATOM     66  N   UNK A   3      31.165  44.767  51.970  0.00  0.00    +0.000 NA
ATOM     67  C   UNK A   3      31.937  44.237  50.977  0.00  0.00    +0.000 A 
ATOM     68  C   UNK A   3      32.579  45.262  50.364  0.00  0.00    +0.000 A 
BRANCH  67  69
ATOM     69  C   UNK A   3      31.907  42.780  50.579  0.00  0.00    +0.000 C 
BRANCH  69  70
ATOM     70  C   UNK A   3      32.532  41.864  51.626  0.00  0.00    +0.000 C 
BRANCH  70  71
ATOM     71  C   UNK A   3      32.279  40.426  51.183  0.00  0.00    +0.000 C 
ATOM     72  O   UNK A   3      31.173  39.923  51.493  0.00  0.00    +0.000 OA
ATOM     73  N   GLU A   2      33.256  39.842  50.488  0.00  0.00    +0.000 N 
ATOM     74  H   GLU A   2      34.134  40.360  50.280  0.00  0.00    +0.000 HD
BRANCH  73  75
ATOM     75  CA  GLU A   2      33.080  38.456  50.018  0.00  0.00    +0.000 C 
BRANCH  75  76
ATOM     76  CB  GLU A   2      33.074  37.466  51.179  0.00  0.00    +0.000 C 
ATOM     77  O   GLU A   2      32.574  36.324  51.018  0.00  0.00    +0.000 OA
ENDBRANCH  75  76
BRANCH  75  78
ATOM     78  C   GLU A   2      34.136  38.010  48.992  0.00  0.00    +0.000 C 
BRANCH  78  79
ATOM     79  O   GLU A   2      34.073  38.902  47.872  0.00  0.00    +0.000 OA
ATOM     80  H   GLU A   2      34.261  39.825  48.176  0.00  0.00    +0.000 HD
ENDBRANCH  78  79
ENDBRANCH  75  78
ENDBRANCH  73  75
ENDBRANCH  70  71
BRANCH  70  81
ATOM     81  N   UNK A   3      33.954  42.050  51.991  0.00  0.00    +0.000 NA
ATOM     82  H   UNK A   1      34.571  42.659  51.417  0.00  0.00    +0.000 HD
ENDBRANCH  70  81
ENDBRANCH  69  70
ENDBRANCH  67  69
ENDBRANCH   1  64
TORSDOF 36
REMARK  Name = ../refined-set-2016/2usn/2usn_pocket.pdb
REMARK  153 active torsions:
REMARK  status: ('A' for Active; 'I' for Inactive)
REMARK    1  A    between atoms: _1  and  _3
REMARK    2  A    between atoms: _3  and  _4
REMARK    3  A    between atoms: _3  and  _6
REMARK    4  A    between atoms: _6  and  _7
REMARK    5  A    between atoms: _10  and  _12
REMARK    6  A    between atoms: _12  and  _13
REMARK    7  A    between atoms: _12  and  _15
REMARK    8  A    between atoms: _15  and  _16
REMARK    9  A    between atoms: _23  and  _24
REMARK   10  A    between atoms: _29  and  _31
REMARK   11  A    between atoms: _31  and  _32
REMARK   12  A    between atoms: _34  and  _36
REMARK   13  A    between atoms: _36  and  _37
REMARK   14  A    between atoms: _36  and  _39
REMARK   15  A    between atoms: _39  and  _40
REMARK   16  A    between atoms: _44  and  _45
REMARK   17  A    between atoms: _50  and  _52
REMARK   18  A    between atoms: _52  and  _53
REMARK   19  A    between atoms: _52  and  _55
REMARK   20  A    between atoms: _55  and  _56
REMARK   21  A    between atoms: _56  and  _57
REMARK   22  A    between atoms: _57  and  _58
REMARK   23  A    between atoms: _58  and  _59
REMARK   24  A    between atoms: _63  and  _65
REMARK   25  A    between atoms: _65  and  _66
REMARK   26  A    between atoms: _65  and  _68
REMARK   27  A    between atoms: _68  and  _69
REMARK   28  A    between atoms: _73  and  ZN_396
REMARK   29  A    between atoms: _74  and  _76
REMARK   30  A    between atoms: _76  and  _77
REMARK   31  A    between atoms: _76  and  _79
REMARK   32  A    between atoms: _79  and  _80
REMARK   33  A    between atoms: _80  and  _82
REMARK   34  A    between atoms: _82  and  ZN_396
REMARK   35  A    between atoms: _83  and  _85
REMARK   36  A    between atoms: _85  and  _86
REMARK   37  A    between atoms: _85  and  _88
REMARK   38  A    between atoms: _88  and  _89
REMARK   39  A    between atoms: _95  and  _97
REMARK   40  A    between atoms: _97  and  _98
REMARK   41  A    between atoms: _97  and  _100
REMARK   42  A    between atoms: _100  and  _101
REMARK   43  A    between atoms: _106  and  _107
REMARK   44  A    between atoms: _110  and  _111
REMARK   45  A    between atoms: _118  and  _119
REMARK   46  A    between atoms: _118  and  _121
REMARK   47  A    between atoms: _121  and  _122
REMARK   48  A    between atoms: _128  and  _130
REMARK   49  A    between atoms: _130  and  _131
REMARK   50  A    between atoms: _130  and  _133
REMARK   51  A    between atoms: _136  and  _138
REMARK   52  A    between atoms: _138  and  _139
REMARK   53  A    between atoms: _138  and  _141
REMARK   54  A    between atoms: _141  and  _142
REMARK   55  A    between atoms: _145  and  _147
REMARK   56  A    between atoms: _147  and  _148
REMARK   57  A    between atoms: _151  and  _153
REMARK   58  A    between atoms: _153  and  _154
REMARK   59  A    between atoms: _153  and  _156
REMARK   60  A    between atoms: _156  and  _157
REMARK   61  A    between atoms: _161  and  ZN_396
REMARK   62  A    between atoms: _162  and  _164
REMARK   63  A    between atoms: _164  and  _165
REMARK   64  A    between atoms: _168  and  _170
REMARK   65  A    between atoms: _170  and  _171
REMARK   66  A    between atoms: _170  and  _173
REMARK   67  A    between atoms: _173  and  _174
REMARK   68  A    between atoms: _179  and  _180
REMARK   69  A    between atoms: _182  and  _184
REMARK   70  A    between atoms: _184  and  _185
REMARK   71  A    between atoms: _189  and  _190
REMARK   72  A    between atoms: _195  and  _197
REMARK   73  A    between atoms: _197  and  _198
REMARK   74  A    between atoms: _200  and  _202
REMARK   75  A    between atoms: _202  and  _203
REMARK   76  A    between atoms: _202  and  _205
REMARK   77  A    between atoms: _205  and  _206
REMARK   78  A    between atoms: _209  and  _211
REMARK   79  A    between atoms: _211  and  _212
REMARK   80  A    between atoms: _211  and  _214
REMARK   81  A    between atoms: _214  and  _215
REMARK   82  A    between atoms: _220  and  _222
REMARK   83  A    between atoms: _222  and  _223
REMARK   84  A    between atoms: _225  and  _227
REMARK   85  A    between atoms: _227  and  _228
REMARK   86  A    between atoms: _227  and  _230
REMARK   87  A    between atoms: _230  and  _231
REMARK   88  A    between atoms: _234  and  _236
REMARK   89  A    between atoms: _236  and  _237
REMARK   90  A    between atoms: _240  and  _242
REMARK   91  A    between atoms: _242  and  _243
REMARK   92  A    between atoms: _242  and  _245
REMARK   93  A    between atoms: _245  and  _246
REMARK   94  A    between atoms: _247  and  ZN_396
REMARK   95  A    between atoms: _251  and  _253
REMARK   96  A    between atoms: _253  and  _254
REMARK   97  A    between atoms: _253  and  _256
REMARK   98  A    between atoms: _259  and  _261
REMARK   99  A    between atoms: _261  and  _262
REMARK  100  A    between atoms: _261  and  _264
REMARK  101  A    between atoms: _264  and  _265
REMARK  102  A    between atoms: _269  and  ZN_395
REMARK  103  A    between atoms: _270  and  _272
REMARK  104  A    between atoms: _272  and  _273
REMARK  105  A    between atoms: _272  and  _275
REMARK  106  A    between atoms: _275  and  _276
REMARK  107  A    between atoms: _276  and  _277
REMARK  108  A    between atoms: _280  and  _282
REMARK  109  A    between atoms: _282  and  _283
REMARK  110  A    between atoms: _282  and  _285
REMARK  111  A    between atoms: _285  and  _286
REMARK  112  A    between atoms: _289  and  _291
REMARK  113  A    between atoms: _291  and  _292
REMARK  114  A    between atoms: _291  and  _294
REMARK  115  A    between atoms: _294  and  _295
REMARK  116  A    between atoms: _299  and  ZN_395
REMARK  117  A    between atoms: _300  and  _302
REMARK  118  A    between atoms: _302  and  _303
REMARK  119  A    between atoms: _302  and  _305
REMARK  120  A    between atoms: _305  and  _306
REMARK  121  A    between atoms: _308  and  _310
REMARK  122  A    between atoms: _310  and  _311
REMARK  123  A    between atoms: _310  and  _313
REMARK  124  A    between atoms: _313  and  _314
REMARK  125  A    between atoms: _317  and  _319
REMARK  126  A    between atoms: _319  and  _320
REMARK  127  A    between atoms: _319  and  _322
REMARK  128  A    between atoms: _322  and  _323
REMARK  129  A    between atoms: _329  and  _331
REMARK  130  A    between atoms: _331  and  _332
REMARK  131  A    between atoms: _331  and  _334
REMARK  132  A    between atoms: _334  and  _335
REMARK  133  A    between atoms: _339  and  ZN_395
REMARK  134  A    between atoms: _340  and  _342
REMARK  135  A    between atoms: _342  and  _343
REMARK  136  A    between atoms: _342  and  _345
REMARK  137  A    between atoms: _345  and  _346
REMARK  138  A    between atoms: _346  and  _347
REMARK  139  A    between atoms: _349  and  _351
REMARK  140  A    between atoms: _351  and  _352
REMARK  141  A    between atoms: _351  and  _354
REMARK  142  A    between atoms: _354  and  _355
REMARK  143  A    between atoms: _360  and  _361
REMARK  144  A    between atoms: _364  and  _365
REMARK  145  A    between atoms: _370  and  _372
REMARK  146  A    between atoms: _372  and  _373
REMARK  147  A    between atoms: _372  and  _375
REMARK  148  A    between atoms: _375  and  _376
REMARK  149  A    between atoms: _381  and  _382
REMARK  150  A    between atoms: _384  and  _386
REMARK  151  A    between atoms: _386  and  _387
REMARK  152  A    between atoms: _386  and  _389
REMARK  153  A    between atoms: _389  and  _390
REMARK                            x       y       z     vdW  Elec       q    Type
REMARK                         _______ _______ _______ _____ _____    ______ ____
ROOT
ATOM      1  CA  TYR A   2      34.628  52.025  56.692  0.00  0.00    +0.153 C 
ENDROOT
BRANCH   1   2
ATOM      2  C   TYR A   2      34.621  52.386  55.182  0.00  0.00    +0.244 C 
ATOM      3  N   PRO A   3      33.591  53.038  54.716  0.00  0.00    -0.273 N 
ATOM      4  CD  PRO A   3      32.419  53.454  55.507  0.00  0.00    +0.094 C 
ATOM      5  CG  PRO A   3      31.372  53.722  54.451  0.00  0.00    +0.024 C 
ATOM      6  CB  PRO A   3      32.100  54.112  53.213  0.00  0.00    +0.030 C 
ATOM      7  CA  PRO A   3      33.467  53.392  53.297  0.00  0.00    +0.140 C 
ATOM      8  O   TYR A   2      35.604  52.022  54.510  0.00  0.00    -0.273 OA
BRANCH   7   9
ATOM      9  C   PRO A   3      34.546  54.231  52.672  0.00  0.00    +0.227 C 
ATOM     10  O   PRO A   3      34.769  54.147  51.438  0.00  0.00    -0.286 OA
ENDBRANCH   7   9
ENDBRANCH   1   2
BRANCH   1  12
ATOM     11  C   MET A   1      34.811  49.653  56.125  0.00  0.00    +0.238 C 
ATOM     12  N   TYR A   2      35.342  50.692  56.702  0.00  0.00    -0.297 N 
ATOM     13  H   TYR A   2      36.265  50.605  57.174  0.00  0.00    +0.150 HD
ATOM     14  O   MET A   1      33.607  49.657  55.752  0.00  0.00    -0.274 OA
BRANCH  11  15
ATOM     15  CA  MET A   1      35.597  48.358  56.087  0.00  0.00    +0.146 C 
BRANCH  15  16
ATOM     16  N   MET A   1      36.967  48.443  56.572  0.00  0.00    -0.238 NA
ATOM     17  H   MET A   1      37.149  48.184  57.563  0.00  0.00    +0.142 HD
ENDBRANCH  15  16
BRANCH  15  18
ATOM     18  CB  MET A   1      34.858  47.184  56.689  0.00  0.00    +0.038 C 
BRANCH  18  19
ATOM     19  CG  MET A   1      35.523  45.863  56.542  0.00  0.00    +0.060 C 
BRANCH  19  20
ATOM     20  SD  MET A   1      35.719  45.428  54.763  0.00  0.00    -0.139 S 
ATOM     21  CE  MET A   1      34.003  45.529  54.221  0.00  0.00    +0.069 C 
ENDBRANCH  19  20
ENDBRANCH  18  19
ENDBRANCH  15  18
ENDBRANCH  11  15
ENDBRANCH   1  12
BRANCH   1  22
ATOM     22  CB  TYR A   2      35.630  52.962  57.422  0.00  0.00    +0.055 C 
BRANCH  22  23
ATOM     23  CG  TYR A   2      35.112  54.374  57.579  0.00  0.00    -0.020 A 
ATOM     24  CD2 TYR A   2      34.050  54.653  58.432  0.00  0.00    -0.001 A 
ATOM     25  CE2 TYR A   2      33.603  55.945  58.643  0.00  0.00    +0.036 A 
ATOM     26  CZ  TYR A   2      34.232  56.999  57.969  0.00  0.00    +0.134 A 
ATOM     27  CE1 TYR A   2      35.330  56.760  57.150  0.00  0.00    +0.036 A 
ATOM     28  CD1 TYR A   2      35.736  55.432  56.942  0.00  0.00    -0.001 A 
BRANCH  26  29
ATOM     29  OH  TYR A   2      33.829  58.286  58.140  0.00  0.00    -0.506 OA
ATOM     30  HH  TYR A   2      33.043  58.307  58.742  0.00  0.00    +0.292 HD
ENDBRANCH  26  29
ENDBRANCH  22  23
ENDBRANCH   1  22
TORSDOF 11
REMARK  Name = ../refined-set-2016/2usn/2usn_pocket.pdb
REMARK  153 active torsions:
REMARK  status: ('A' for Active; 'I' for Inactive)
REMARK    1  A    between atoms: _1  and  _3
REMARK    2  A    between atoms: _3  and  _4
REMARK    3  A    between atoms: _3  and  _6
REMARK    4  A    between atoms: _6  and  _7
REMARK    5  A    between atoms: _10  and  _12
REMARK    6  A    between atoms: _12  and  _13
REMARK    7  A    between atoms: _12  and  _15
REMARK    8  A    between atoms: _15  and  _16
REMARK    9  A    between atoms: _23  and  _24
REMARK   10  A    between atoms: _29  and  _31
REMARK   11  A    between atoms: _31  and  _32
REMARK   12  A    between atoms: _34  and  _36
REMARK   13  A    between atoms: _36  and  _37
REMARK   14  A    between atoms: _36  and  _39
REMARK   15  A    between atoms: _39  and  _40
REMARK   16  A    between atoms: _44  and  _45
REMARK   17  A    between atoms: _50  and  _52
REMARK   18  A    between atoms: _52  and  _53
REMARK   19  A    between atoms: _52  and  _55
REMARK   20  A    between atoms: _55  and  _56
REMARK   21  A    between atoms: _56  and  _57
REMARK   22  A    between atoms: _57  and  _58
REMARK   23  A    between atoms: _58  and  _59
REMARK   24  A    between atoms: _63  and  _65
REMARK   25  A    between atoms: _65  and  _66
REMARK   26  A    between atoms: _65  and  _68
REMARK   27  A    between atoms: _68  and  _69
REMARK   28  A    between atoms: _73  and  ZN_396
REMARK   29  A    between atoms: _74  and  _76
REMARK   30  A    between atoms: _76  and  _77
REMARK   31  A    between atoms: _76  and  _79
REMARK   32  A    between atoms: _79  and  _80
REMARK   33  A    between atoms: _80  and  _82
REMARK   34  A    between atoms: _82  and  ZN_396
REMARK   35  A    between atoms: _83  and  _85
REMARK   36  A    between atoms: _85  and  _86
REMARK   37  A    between atoms: _85  and  _88
REMARK   38  A    between atoms: _88  and  _89
REMARK   39  A    between atoms: _95  and  _97
REMARK   40  A    between atoms: _97  and  _98
REMARK   41  A    between atoms: _97  and  _100
REMARK   42  A    between atoms: _100  and  _101
REMARK   43  A    between atoms: _106  and  _107
REMARK   44  A    between atoms: _110  and  _111
REMARK   45  A    between atoms: _118  and  _119
REMARK   46  A    between atoms: _118  and  _121
REMARK   47  A    between atoms: _121  and  _122
REMARK   48  A    between atoms: _128  and  _130
REMARK   49  A    between atoms: _130  and  _131
REMARK   50  A    between atoms: _130  and  _133
REMARK   51  A    between atoms: _136  and  _138
REMARK   52  A    between atoms: _138  and  _139
REMARK   53  A    between atoms: _138  and  _141
REMARK   54  A    between atoms: _141  and  _142
REMARK   55  A    between atoms: _145  and  _147
REMARK   56  A    between atoms: _147  and  _148
REMARK   57  A    between atoms: _151  and  _153
REMARK   58  A    between atoms: _153  and  _154
REMARK   59  A    between atoms: _153  and  _156
REMARK   60  A    between atoms: _156  and  _157
REMARK   61  A    between atoms: _161  and  ZN_396
REMARK   62  A    between atoms: _162  and  _164
REMARK   63  A    between atoms: _164  and  _165
REMARK   64  A    between atoms: _168  and  _170
REMARK   65  A    between atoms: _170  and  _171
REMARK   66  A    between atoms: _170  and  _173
REMARK   67  A    between atoms: _173  and  _174
REMARK   68  A    between atoms: _179  and  _180
REMARK   69  A    between atoms: _182  and  _184
REMARK   70  A    between atoms: _184  and  _185
REMARK   71  A    between atoms: _189  and  _190
REMARK   72  A    between atoms: _195  and  _197
REMARK   73  A    between atoms: _197  and  _198
REMARK   74  A    between atoms: _200  and  _202
REMARK   75  A    between atoms: _202  and  _203
REMARK   76  A    between atoms: _202  and  _205
REMARK   77  A    between atoms: _205  and  _206
REMARK   78  A    between atoms: _209  and  _211
REMARK   79  A    between atoms: _211  and  _212
REMARK   80  A    between atoms: _211  and  _214
REMARK   81  A    between atoms: _214  and  _215
REMARK   82  A    between atoms: _220  and  _222
REMARK   83  A    between atoms: _222  and  _223
REMARK   84  A    between atoms: _225  and  _227
REMARK   85  A    between atoms: _227  and  _228
REMARK   86  A    between atoms: _227  and  _230
REMARK   87  A    between atoms: _230  and  _231
REMARK   88  A    between atoms: _234  and  _236
REMARK   89  A    between atoms: _236  and  _237
REMARK   90  A    between atoms: _240  and  _242
REMARK   91  A    between atoms: _242  and  _243
REMARK   92  A    between atoms: _242  and  _245
REMARK   93  A    between atoms: _245  and  _246
REMARK   94  A    between atoms: _247  and  ZN_396
REMARK   95  A    between atoms: _251  and  _253
REMARK   96  A    between atoms: _253  and  _254
REMARK   97  A    between atoms: _253  and  _256
REMARK   98  A    between atoms: _259  and  _261
REMARK   99  A    between atoms: _261  and  _262
REMARK  100  A    between atoms: _261  and  _264
REMARK  101  A    between atoms: _264  and  _265
REMARK  102  A    between atoms: _269  and  ZN_395
REMARK  103  A    between atoms: _270  and  _272
REMARK  104  A    between atoms: _272  and  _273
REMARK  105  A    between atoms: _272  and  _275
REMARK  106  A    between atoms: _275  and  _276
REMARK  107  A    between atoms: _276  and  _277
REMARK  108  A    between atoms: _280  and  _282
REMARK  109  A    between atoms: _282  and  _283
REMARK  110  A    between atoms: _282  and  _285
REMARK  111  A    between atoms: _285  and  _286
REMARK  112  A    between atoms: _289  and  _291
REMARK  113  A    between atoms: _291  and  _292
REMARK  114  A    between atoms: _291  and  _294
REMARK  115  A    between atoms: _294  and  _295
REMARK  116  A    between atoms: _299  and  ZN_395
REMARK  117  A    between atoms: _300  and  _302
REMARK  118  A    between atoms: _302  and  _303
REMARK  119  A    between atoms: _302  and  _305
REMARK  120  A    between atoms: _305  and  _306
REMARK  121  A    between atoms: _308  and  _310
REMARK  122  A    between atoms: _310  and  _311
REMARK  123  A    between atoms: _310  and  _313
REMARK  124  A    between atoms: _313  and  _314
REMARK  125  A    between atoms: _317  and  _319
REMARK  126  A    between atoms: _319  and  _320
REMARK  127  A    between atoms: _319  and  _322
REMARK  128  A    between atoms: _322  and  _323
REMARK  129  A    between atoms: _329  and  _331
REMARK  130  A    between atoms: _331  and  _332
REMARK  131  A    between atoms: _331  and  _334
REMARK  132  A    between atoms: _334  and  _335
REMARK  133  A    between atoms: _339  and  ZN_395
REMARK  134  A    between atoms: _340  and  _342
REMARK  135  A    between atoms: _342  and  _343
REMARK  136  A    between atoms: _342  and  _345
REMARK  137  A    between atoms: _345  and  _346
REMARK  138  A    between atoms: _346  and  _347
REMARK  139  A    between atoms: _349  and  _351
REMARK  140  A    between atoms: _351  and  _352
REMARK  141  A    between atoms: _351  and  _354
REMARK  142  A    between atoms: _354  and  _355
REMARK  143  A    between atoms: _360  and  _361
REMARK  144  A    between atoms: _364  and  _365
REMARK  145  A    between atoms: _370  and  _372
REMARK  146  A    between atoms: _372  and  _373
REMARK  147  A    between atoms: _372  and  _375
REMARK  148  A    between atoms: _375  and  _376
REMARK  149  A    between atoms: _381  and  _382
REMARK  150  A    between atoms: _384  and  _386
REMARK  151  A    between atoms: _386  and  _387
REMARK  152  A    between atoms: _386  and  _389
REMARK  153  A    between atoms: _389  and  _390
REMARK                            x       y       z     vdW  Elec       q    Type
REMARK                         _______ _______ _______ _____ _____    ______ ____
ROOT
ATOM      1  C   TYR A   1      40.064  53.899  52.518  0.00  0.00    +0.239 C 
ATOM      2  O   TYR A   1      41.288  54.060  52.745  0.00  0.00    -0.274 OA
ATOM      3  N   HIS A   2      39.592  53.947  51.283  0.00  0.00    -0.298 N 
ATOM      4  H   HIS A   2      38.575  53.783  51.144  0.00  0.00    +0.150 HD
ENDROOT
BRANCH   1   5
ATOM      5  CA  TYR A   1      39.088  53.555  53.639  0.00  0.00    +0.149 C 
BRANCH   5   6
ATOM      6  N   TYR A   1      37.777  54.196  53.384  0.00  0.00    -0.238 NA
ATOM      7  H   TYR A   1      36.923  53.602  53.376  0.00  0.00    +0.142 HD
ENDBRANCH   5   6
BRANCH   5   8
ATOM      8  CB  TYR A   1      38.889  52.012  53.767  0.00  0.00    +0.053 C 
BRANCH   8   9
ATOM      9  CG  TYR A   1      38.553  51.435  52.397  0.00  0.00    -0.020 A 
ATOM     10  CD2 TYR A   1      37.320  51.599  51.793  0.00  0.00    -0.001 A 
ATOM     11  CE2 TYR A   1      37.076  51.143  50.492  0.00  0.00    +0.036 A 
ATOM     12  CZ  TYR A   1      38.111  50.598  49.772  0.00  0.00    +0.134 A 
ATOM     13  CE1 TYR A   1      39.356  50.423  50.352  0.00  0.00    +0.036 A 
ATOM     14  CD1 TYR A   1      39.599  50.945  51.624  0.00  0.00    -0.001 A 
BRANCH  12  15
ATOM     15  OH  TYR A   1      37.931  50.265  48.449  0.00  0.00    -0.506 OA
ATOM     16  HH  TYR A   1      36.994  50.448  48.189  0.00  0.00    +0.292 HD
ENDBRANCH  12  15
ENDBRANCH   8   9
ENDBRANCH   5   8
ENDBRANCH   1   5
BRANCH   3  17
ATOM     17  CA  HIS A   2      40.405  54.215  50.108  0.00  0.00    +0.143 C 
BRANCH  17  18
ATOM     18  C   HIS A   2      41.171  55.518  50.095  0.00  0.00    +0.227 C 
ATOM     19  O   HIS A   2      42.195  55.615  49.383  0.00  0.00    -0.286 OA
ENDBRANCH  17  18
BRANCH  17  20
ATOM     20  CB  HIS A   2      39.699  54.030  48.749  0.00  0.00    +0.075 C 
BRANCH  20  21
ATOM     21  CG  HIS A   2      38.344  54.662  48.668  0.00  0.00    +0.082 A 
ATOM     22  CD2 HIS A   2      37.121  54.043  48.658  0.00  0.00    +0.115 A 
ATOM     23  NE2 HIS A   2      36.169  55.025  48.539  0.00  0.00    -0.221 NA
ATOM     24  CE1 HIS A   2      36.777  56.205  48.512  0.00  0.00    +0.199 A 
ATOM     25  ND1 HIS A   2      38.083  55.990  48.527  0.00  0.00    -0.227 NA
ENDBRANCH  20  21
ENDBRANCH  17  20
ENDBRANCH   3  17
TORSDOF 9
REMARK  Name = ../refined-set-2016/2usn/2usn_pocket.pdb
REMARK  153 active torsions:
REMARK  status: ('A' for Active; 'I' for Inactive)
REMARK    1  A    between atoms: _1  and  _3
REMARK    2  A    between atoms: _3  and  _4
REMARK    3  A    between atoms: _3  and  _6
REMARK    4  A    between atoms: _6  and  _7
REMARK    5  A    between atoms: _10  and  _12
REMARK    6  A    between atoms: _12  and  _13
REMARK    7  A    between atoms: _12  and  _15
REMARK    8  A    between atoms: _15  and  _16
REMARK    9  A    between atoms: _23  and  _24
REMARK   10  A    between atoms: _29  and  _31
REMARK   11  A    between atoms: _31  and  _32
REMARK   12  A    between atoms: _34  and  _36
REMARK   13  A    between atoms: _36  and  _37
REMARK   14  A    between atoms: _36  and  _39
REMARK   15  A    between atoms: _39  and  _40
REMARK   16  A    between atoms: _44  and  _45
REMARK   17  A    between atoms: _50  and  _52
REMARK   18  A    between atoms: _52  and  _53
REMARK   19  A    between atoms: _52  and  _55
REMARK   20  A    between atoms: _55  and  _56
REMARK   21  A    between atoms: _56  and  _57
REMARK   22  A    between atoms: _57  and  _58
REMARK   23  A    between atoms: _58  and  _59
REMARK   24  A    between atoms: _63  and  _65
REMARK   25  A    between atoms: _65  and  _66
REMARK   26  A    between atoms: _65  and  _68
REMARK   27  A    between atoms: _68  and  _69
REMARK   28  A    between atoms: _73  and  ZN_396
REMARK   29  A    between atoms: _74  and  _76
REMARK   30  A    between atoms: _76  and  _77
REMARK   31  A    between atoms: _76  and  _79
REMARK   32  A    between atoms: _79  and  _80
REMARK   33  A    between atoms: _80  and  _82
REMARK   34  A    between atoms: _82  and  ZN_396
REMARK   35  A    between atoms: _83  and  _85
REMARK   36  A    between atoms: _85  and  _86
REMARK   37  A    between atoms: _85  and  _88
REMARK   38  A    between atoms: _88  and  _89
REMARK   39  A    between atoms: _95  and  _97
REMARK   40  A    between atoms: _97  and  _98
REMARK   41  A    between atoms: _97  and  _100
REMARK   42  A    between atoms: _100  and  _101
REMARK   43  A    between atoms: _106  and  _107
REMARK   44  A    between atoms: _110  and  _111
REMARK   45  A    between atoms: _118  and  _119
REMARK   46  A    between atoms: _118  and  _121
REMARK   47  A    between atoms: _121  and  _122
REMARK   48  A    between atoms: _128  and  _130
REMARK   49  A    between atoms: _130  and  _131
REMARK   50  A    between atoms: _130  and  _133
REMARK   51  A    between atoms: _136  and  _138
REMARK   52  A    between atoms: _138  and  _139
REMARK   53  A    between atoms: _138  and  _141
REMARK   54  A    between atoms: _141  and  _142
REMARK   55  A    between atoms: _145  and  _147
REMARK   56  A    between atoms: _147  and  _148
REMARK   57  A    between atoms: _151  and  _153
REMARK   58  A    between atoms: _153  and  _154
REMARK   59  A    between atoms: _153  and  _156
REMARK   60  A    between atoms: _156  and  _157
REMARK   61  A    between atoms: _161  and  ZN_396
REMARK   62  A    between atoms: _162  and  _164
REMARK   63  A    between atoms: _164  and  _165
REMARK   64  A    between atoms: _168  and  _170
REMARK   65  A    between atoms: _170  and  _171
REMARK   66  A    between atoms: _170  and  _173
REMARK   67  A    between atoms: _173  and  _174
REMARK   68  A    between atoms: _179  and  _180
REMARK   69  A    between atoms: _182  and  _184
REMARK   70  A    between atoms: _184  and  _185
REMARK   71  A    between atoms: _189  and  _190
REMARK   72  A    between atoms: _195  and  _197
REMARK   73  A    between atoms: _197  and  _198
REMARK   74  A    between atoms: _200  and  _202
REMARK   75  A    between atoms: _202  and  _203
REMARK   76  A    between atoms: _202  and  _205
REMARK   77  A    between atoms: _205  and  _206
REMARK   78  A    between atoms: _209  and  _211
REMARK   79  A    between atoms: _211  and  _212
REMARK   80  A    between atoms: _211  and  _214
REMARK   81  A    between atoms: _214  and  _215
REMARK   82  A    between atoms: _220  and  _222
REMARK   83  A    between atoms: _222  and  _223
REMARK   84  A    between atoms: _225  and  _227
REMARK   85  A    between atoms: _227  and  _228
REMARK   86  A    between atoms: _227  and  _230
REMARK   87  A    between atoms: _230  and  _231
REMARK   88  A    between atoms: _234  and  _236
REMARK   89  A    between atoms: _236  and  _237
REMARK   90  A    between atoms: _240  and  _242
REMARK   91  A    between atoms: _242  and  _243
REMARK   92  A    between atoms: _242  and  _245
REMARK   93  A    between atoms: _245  and  _246
REMARK   94  A    between atoms: _247  and  ZN_396
REMARK   95  A    between atoms: _251  and  _253
REMARK   96  A    between atoms: _253  and  _254
REMARK   97  A    between atoms: _253  and  _256
REMARK   98  A    between atoms: _259  and  _261
REMARK   99  A    between atoms: _261  and  _262
REMARK  100  A    between atoms: _261  and  _264
REMARK  101  A    between atoms: _264  and  _265
REMARK  102  A    between atoms: _269  and  ZN_395
REMARK  103  A    between atoms: _270  and  _272
REMARK  104  A    between atoms: _272  and  _273
REMARK  105  A    between atoms: _272  and  _275
REMARK  106  A    between atoms: _275  and  _276
REMARK  107  A    between atoms: _276  and  _277
REMARK  108  A    between atoms: _280  and  _282
REMARK  109  A    between atoms: _282  and  _283
REMARK  110  A    between atoms: _282  and  _285
REMARK  111  A    between atoms: _285  and  _286
REMARK  112  A    between atoms: _289  and  _291
REMARK  113  A    between atoms: _291  and  _292
REMARK  114  A    between atoms: _291  and  _294
REMARK  115  A    between atoms: _294  and  _295
REMARK  116  A    between atoms: _299  and  ZN_395
REMARK  117  A    between atoms: _300  and  _302
REMARK  118  A    between atoms: _302  and  _303
REMARK  119  A    between atoms: _302  and  _305
REMARK  120  A    between atoms: _305  and  _306
REMARK  121  A    between atoms: _308  and  _310
REMARK  122  A    between atoms: _310  and  _311
REMARK  123  A    between atoms: _310  and  _313
REMARK  124  A    between atoms: _313  and  _314
REMARK  125  A    between atoms: _317  and  _319
REMARK  126  A    between atoms: _319  and  _320
REMARK  127  A    between atoms: _319  and  _322
REMARK  128  A    between atoms: _322  and  _323
REMARK  129  A    between atoms: _329  and  _331
REMARK  130  A    between atoms: _331  and  _332
REMARK  131  A    between atoms: _331  and  _334
REMARK  132  A    between atoms: _334  and  _335
REMARK  133  A    between atoms: _339  and  ZN_395
REMARK  134  A    between atoms: _340  and  _342
REMARK  135  A    between atoms: _342  and  _343
REMARK  136  A    between atoms: _342  and  _345
REMARK  137  A    between atoms: _345  and  _346
REMARK  138  A    between atoms: _346  and  _347
REMARK  139  A    between atoms: _349  and  _351
REMARK  140  A    between atoms: _351  and  _352
REMARK  141  A    between atoms: _351  and  _354
REMARK  142  A    between atoms: _354  and  _355
REMARK  143  A    between atoms: _360  and  _361
REMARK  144  A    between atoms: _364  and  _365
REMARK  145  A    between atoms: _370  and  _372
REMARK  146  A    between atoms: _372  and  _373
REMARK  147  A    between atoms: _372  and  _375
REMARK  148  A    between atoms: _375  and  _376
REMARK  149  A    between atoms: _381  and  _382
REMARK  150  A    between atoms: _384  and  _386
REMARK  151  A    between atoms: _386  and  _387
REMARK  152  A    between atoms: _386  and  _389
REMARK  153  A    between atoms: _389  and  _390
REMARK                            x       y       z     vdW  Elec       q    Type
REMARK                         _______ _______ _______ _____ _____    ______ ____
ROOT
ATOM      1  O   HOH     1      33.574  52.428  49.640  0.00  0.00    +0.000 OA
ENDROOT
TORSDOF 0
REMARK  Name = ../refined-set-2016/2usn/2usn_pocket.pdb
REMARK  153 active torsions:
REMARK  status: ('A' for Active; 'I' for Inactive)
REMARK    1  A    between atoms: _1  and  _3
REMARK    2  A    between atoms: _3  and  _4
REMARK    3  A    between atoms: _3  and  _6
REMARK    4  A    between atoms: _6  and  _7
REMARK    5  A    between atoms: _10  and  _12
REMARK    6  A    between atoms: _12  and  _13
REMARK    7  A    between atoms: _12  and  _15
REMARK    8  A    between atoms: _15  and  _16
REMARK    9  A    between atoms: _23  and  _24
REMARK   10  A    between atoms: _29  and  _31
REMARK   11  A    between atoms: _31  and  _32
REMARK   12  A    between atoms: _34  and  _36
REMARK   13  A    between atoms: _36  and  _37
REMARK   14  A    between atoms: _36  and  _39
REMARK   15  A    between atoms: _39  and  _40
REMARK   16  A    between atoms: _44  and  _45
REMARK   17  A    between atoms: _50  and  _52
REMARK   18  A    between atoms: _52  and  _53
REMARK   19  A    between atoms: _52  and  _55
REMARK   20  A    between atoms: _55  and  _56
REMARK   21  A    between atoms: _56  and  _57
REMARK   22  A    between atoms: _57  and  _58
REMARK   23  A    between atoms: _58  and  _59
REMARK   24  A    between atoms: _63  and  _65
REMARK   25  A    between atoms: _65  and  _66
REMARK   26  A    between atoms: _65  and  _68
REMARK   27  A    between atoms: _68  and  _69
REMARK   28  A    between atoms: _73  and  ZN_396
REMARK   29  A    between atoms: _74  and  _76
REMARK   30  A    between atoms: _76  and  _77
REMARK   31  A    between atoms: _76  and  _79
REMARK   32  A    between atoms: _79  and  _80
REMARK   33  A    between atoms: _80  and  _82
REMARK   34  A    between atoms: _82  and  ZN_396
REMARK   35  A    between atoms: _83  and  _85
REMARK   36  A    between atoms: _85  and  _86
REMARK   37  A    between atoms: _85  and  _88
REMARK   38  A    between atoms: _88  and  _89
REMARK   39  A    between atoms: _95  and  _97
REMARK   40  A    between atoms: _97  and  _98
REMARK   41  A    between atoms: _97  and  _100
REMARK   42  A    between atoms: _100  and  _101
REMARK   43  A    between atoms: _106  and  _107
REMARK   44  A    between atoms: _110  and  _111
REMARK   45  A    between atoms: _118  and  _119
REMARK   46  A    between atoms: _118  and  _121
REMARK   47  A    between atoms: _121  and  _122
REMARK   48  A    between atoms: _128  and  _130
REMARK   49  A    between atoms: _130  and  _131
REMARK   50  A    between atoms: _130  and  _133
REMARK   51  A    between atoms: _136  and  _138
REMARK   52  A    between atoms: _138  and  _139
REMARK   53  A    between atoms: _138  and  _141
REMARK   54  A    between atoms: _141  and  _142
REMARK   55  A    between atoms: _145  and  _147
REMARK   56  A    between atoms: _147  and  _148
REMARK   57  A    between atoms: _151  and  _153
REMARK   58  A    between atoms: _153  and  _154
REMARK   59  A    between atoms: _153  and  _156
REMARK   60  A    between atoms: _156  and  _157
REMARK   61  A    between atoms: _161  and  ZN_396
REMARK   62  A    between atoms: _162  and  _164
REMARK   63  A    between atoms: _164  and  _165
REMARK   64  A    between atoms: _168  and  _170
REMARK   65  A    between atoms: _170  and  _171
REMARK   66  A    between atoms: _170  and  _173
REMARK   67  A    between atoms: _173  and  _174
REMARK   68  A    between atoms: _179  and  _180
REMARK   69  A    between atoms: _182  and  _184
REMARK   70  A    between atoms: _184  and  _185
REMARK   71  A    between atoms: _189  and  _190
REMARK   72  A    between atoms: _195  and  _197
REMARK   73  A    between atoms: _197  and  _198
REMARK   74  A    between atoms: _200  and  _202
REMARK   75  A    between atoms: _202  and  _203
REMARK   76  A    between atoms: _202  and  _205
REMARK   77  A    between atoms: _205  and  _206
REMARK   78  A    between atoms: _209  and  _211
REMARK   79  A    between atoms: _211  and  _212
REMARK   80  A    between atoms: _211  and  _214
REMARK   81  A    between atoms: _214  and  _215
REMARK   82  A    between atoms: _220  and  _222
REMARK   83  A    between atoms: _222  and  _223
REMARK   84  A    between atoms: _225  and  _227
REMARK   85  A    between atoms: _227  and  _228
REMARK   86  A    between atoms: _227  and  _230
REMARK   87  A    between atoms: _230  and  _231
REMARK   88  A    between atoms: _234  and  _236
REMARK   89  A    between atoms: _236  and  _237
REMARK   90  A    between atoms: _240  and  _242
REMARK   91  A    between atoms: _242  and  _243
REMARK   92  A    between atoms: _242  and  _245
REMARK   93  A    between atoms: _245  and  _246
REMARK   94  A    between atoms: _247  and  ZN_396
REMARK   95  A    between atoms: _251  and  _253
REMARK   96  A    between atoms: _253  and  _254
REMARK   97  A    between atoms: _253  and  _256
REMARK   98  A    between atoms: _259  and  _261
REMARK   99  A    between atoms: _261  and  _262
REMARK  100  A    between atoms: _261  and  _264
REMARK  101  A    between atoms: _264  and  _265
REMARK  102  A    between atoms: _269  and  ZN_395
REMARK  103  A    between atoms: _270  and  _272
REMARK  104  A    between atoms: _272  and  _273
REMARK  105  A    between atoms: _272  and  _275
REMARK  106  A    between atoms: _275  and  _276
REMARK  107  A    between atoms: _276  and  _277
REMARK  108  A    between atoms: _280  and  _282
REMARK  109  A    between atoms: _282  and  _283
REMARK  110  A    between atoms: _282  and  _285
REMARK  111  A    between atoms: _285  and  _286
REMARK  112  A    between atoms: _289  and  _291
REMARK  113  A    between atoms: _291  and  _292
REMARK  114  A    between atoms: _291  and  _294
REMARK  115  A    between atoms: _294  and  _295
REMARK  116  A    between atoms: _299  and  ZN_395
REMARK  117  A    between atoms: _300  and  _302
REMARK  118  A    between atoms: _302  and  _303
REMARK  119  A    between atoms: _302  and  _305
REMARK  120  A    between atoms: _305  and  _306
REMARK  121  A    between atoms: _308  and  _310
REMARK  122  A    between atoms: _310  and  _311
REMARK  123  A    between atoms: _310  and  _313
REMARK  124  A    between atoms: _313  and  _314
REMARK  125  A    between atoms: _317  and  _319
REMARK  126  A    between atoms: _319  and  _320
REMARK  127  A    between atoms: _319  and  _322
REMARK  128  A    between atoms: _322  and  _323
REMARK  129  A    between atoms: _329  and  _331
REMARK  130  A    between atoms: _331  and  _332
REMARK  131  A    between atoms: _331  and  _334
REMARK  132  A    between atoms: _334  and  _335
REMARK  133  A    between atoms: _339  and  ZN_395
REMARK  134  A    between atoms: _340  and  _342
REMARK  135  A    between atoms: _342  and  _343
REMARK  136  A    between atoms: _342  and  _345
REMARK  137  A    between atoms: _345  and  _346
REMARK  138  A    between atoms: _346  and  _347
REMARK  139  A    between atoms: _349  and  _351
REMARK  140  A    between atoms: _351  and  _352
REMARK  141  A    between atoms: _351  and  _354
REMARK  142  A    between atoms: _354  and  _355
REMARK  143  A    between atoms: _360  and  _361
REMARK  144  A    between atoms: _364  and  _365
REMARK  145  A    between atoms: _370  and  _372
REMARK  146  A    between atoms: _372  and  _373
REMARK  147  A    between atoms: _372  and  _375
REMARK  148  A    between atoms: _375  and  _376
REMARK  149  A    between atoms: _381  and  _382
REMARK  150  A    between atoms: _384  and  _386
REMARK  151  A    between atoms: _386  and  _387
REMARK  152  A    between atoms: _386  and  _389
REMARK  153  A    between atoms: _389  and  _390
REMARK                            x       y       z     vdW  Elec       q    Type
REMARK                         _______ _______ _______ _____ _____    ______ ____
ROOT
ATOM      1  O   HOH     1      35.314  50.539  47.478  0.00  0.00    +0.000 OA
ENDROOT
TORSDOF 0
REMARK  Name = ../refined-set-2016/2usn/2usn_pocket.pdb
REMARK  153 active torsions:
REMARK  status: ('A' for Active; 'I' for Inactive)
REMARK    1  A    between atoms: _1  and  _3
REMARK    2  A    between atoms: _3  and  _4
REMARK    3  A    between atoms: _3  and  _6
REMARK    4  A    between atoms: _6  and  _7
REMARK    5  A    between atoms: _10  and  _12
REMARK    6  A    between atoms: _12  and  _13
REMARK    7  A    between atoms: _12  and  _15
REMARK    8  A    between atoms: _15  and  _16
REMARK    9  A    between atoms: _23  and  _24
REMARK   10  A    between atoms: _29  and  _31
REMARK   11  A    between atoms: _31  and  _32
REMARK   12  A    between atoms: _34  and  _36
REMARK   13  A    between atoms: _36  and  _37
REMARK   14  A    between atoms: _36  and  _39
REMARK   15  A    between atoms: _39  and  _40
REMARK   16  A    between atoms: _44  and  _45
REMARK   17  A    between atoms: _50  and  _52
REMARK   18  A    between atoms: _52  and  _53
REMARK   19  A    between atoms: _52  and  _55
REMARK   20  A    between atoms: _55  and  _56
REMARK   21  A    between atoms: _56  and  _57
REMARK   22  A    between atoms: _57  and  _58
REMARK   23  A    between atoms: _58  and  _59
REMARK   24  A    between atoms: _63  and  _65
REMARK   25  A    between atoms: _65  and  _66
REMARK   26  A    between atoms: _65  and  _68
REMARK   27  A    between atoms: _68  and  _69
REMARK   28  A    between atoms: _73  and  ZN_396
REMARK   29  A    between atoms: _74  and  _76
REMARK   30  A    between atoms: _76  and  _77
REMARK   31  A    between atoms: _76  and  _79
REMARK   32  A    between atoms: _79  and  _80
REMARK   33  A    between atoms: _80  and  _82
REMARK   34  A    between atoms: _82  and  ZN_396
REMARK   35  A    between atoms: _83  and  _85
REMARK   36  A    between atoms: _85  and  _86
REMARK   37  A    between atoms: _85  and  _88
REMARK   38  A    between atoms: _88  and  _89
REMARK   39  A    between atoms: _95  and  _97
REMARK   40  A    between atoms: _97  and  _98
REMARK   41  A    between atoms: _97  and  _100
REMARK   42  A    between atoms: _100  and  _101
REMARK   43  A    between atoms: _106  and  _107
REMARK   44  A    between atoms: _110  and  _111
REMARK   45  A    between atoms: _118  and  _119
REMARK   46  A    between atoms: _118  and  _121
REMARK   47  A    between atoms: _121  and  _122
REMARK   48  A    between atoms: _128  and  _130
REMARK   49  A    between atoms: _130  and  _131
REMARK   50  A    between atoms: _130  and  _133
REMARK   51  A    between atoms: _136  and  _138
REMARK   52  A    between atoms: _138  and  _139
REMARK   53  A    between atoms: _138  and  _141
REMARK   54  A    between atoms: _141  and  _142
REMARK   55  A    between atoms: _145  and  _147
REMARK   56  A    between atoms: _147  and  _148
REMARK   57  A    between atoms: _151  and  _153
REMARK   58  A    between atoms: _153  and  _154
REMARK   59  A    between atoms: _153  and  _156
REMARK   60  A    between atoms: _156  and  _157
REMARK   61  A    between atoms: _161  and  ZN_396
REMARK   62  A    between atoms: _162  and  _164
REMARK   63  A    between atoms: _164  and  _165
REMARK   64  A    between atoms: _168  and  _170
REMARK   65  A    between atoms: _170  and  _171
REMARK   66  A    between atoms: _170  and  _173
REMARK   67  A    between atoms: _173  and  _174
REMARK   68  A    between atoms: _179  and  _180
REMARK   69  A    between atoms: _182  and  _184
REMARK   70  A    between atoms: _184  and  _185
REMARK   71  A    between atoms: _189  and  _190
REMARK   72  A    between atoms: _195  and  _197
REMARK   73  A    between atoms: _197  and  _198
REMARK   74  A    between atoms: _200  and  _202
REMARK   75  A    between atoms: _202  and  _203
REMARK   76  A    between atoms: _202  and  _205
REMARK   77  A    between atoms: _205  and  _206
REMARK   78  A    between atoms: _209  and  _211
REMARK   79  A    between atoms: _211  and  _212
REMARK   80  A    between atoms: _211  and  _214
REMARK   81  A    between atoms: _214  and  _215
REMARK   82  A    between atoms: _220  and  _222
REMARK   83  A    between atoms: _222  and  _223
REMARK   84  A    between atoms: _225  and  _227
REMARK   85  A    between atoms: _227  and  _228
REMARK   86  A    between atoms: _227  and  _230
REMARK   87  A    between atoms: _230  and  _231
REMARK   88  A    between atoms: _234  and  _236
REMARK   89  A    between atoms: _236  and  _237
REMARK   90  A    between atoms: _240  and  _242
REMARK   91  A    between atoms: _242  and  _243
REMARK   92  A    between atoms: _242  and  _245
REMARK   93  A    between atoms: _245  and  _246
REMARK   94  A    between atoms: _247  and  ZN_396
REMARK   95  A    between atoms: _251  and  _253
REMARK   96  A    between atoms: _253  and  _254
REMARK   97  A    between atoms: _253  and  _256
REMARK   98  A    between atoms: _259  and  _261
REMARK   99  A    between atoms: _261  and  _262
REMARK  100  A    between atoms: _261  and  _264
REMARK  101  A    between atoms: _264  and  _265
REMARK  102  A    between atoms: _269  and  ZN_395
REMARK  103  A    between atoms: _270  and  _272
REMARK  104  A    between atoms: _272  and  _273
REMARK  105  A    between atoms: _272  and  _275
REMARK  106  A    between atoms: _275  and  _276
REMARK  107  A    between atoms: _276  and  _277
REMARK  108  A    between atoms: _280  and  _282
REMARK  109  A    between atoms: _282  and  _283
REMARK  110  A    between atoms: _282  and  _285
REMARK  111  A    between atoms: _285  and  _286
REMARK  112  A    between atoms: _289  and  _291
REMARK  113  A    between atoms: _291  and  _292
REMARK  114  A    between atoms: _291  and  _294
REMARK  115  A    between atoms: _294  and  _295
REMARK  116  A    between atoms: _299  and  ZN_395
REMARK  117  A    between atoms: _300  and  _302
REMARK  118  A    between atoms: _302  and  _303
REMARK  119  A    between atoms: _302  and  _305
REMARK  120  A    between atoms: _305  and  _306
REMARK  121  A    between atoms: _308  and  _310
REMARK  122  A    between atoms: _310  and  _311
REMARK  123  A    between atoms: _310  and  _313
REMARK  124  A    between atoms: _313  and  _314
REMARK  125  A    between atoms: _317  and  _319
REMARK  126  A    between atoms: _319  and  _320
REMARK  127  A    between atoms: _319  and  _322
REMARK  128  A    between atoms: _322  and  _323
REMARK  129  A    between atoms: _329  and  _331
REMARK  130  A    between atoms: _331  and  _332
REMARK  131  A    between atoms: _331  and  _334
REMARK  132  A    between atoms: _334  and  _335
REMARK  133  A    between atoms: _339  and  ZN_395
REMARK  134  A    between atoms: _340  and  _342
REMARK  135  A    between atoms: _342  and  _343
REMARK  136  A    between atoms: _342  and  _345
REMARK  137  A    between atoms: _345  and  _346
REMARK  138  A    between atoms: _346  and  _347
REMARK  139  A    between atoms: _349  and  _351
REMARK  140  A    between atoms: _351  and  _352
REMARK  141  A    between atoms: _351  and  _354
REMARK  142  A    between atoms: _354  and  _355
REMARK  143  A    between atoms: _360  and  _361
REMARK  144  A    between atoms: _364  and  _365
REMARK  145  A    between atoms: _370  and  _372
REMARK  146  A    between atoms: _372  and  _373
REMARK  147  A    between atoms: _372  and  _375
REMARK  148  A    between atoms: _375  and  _376
REMARK  149  A    between atoms: _381  and  _382
REMARK  150  A    between atoms: _384  and  _386
REMARK  151  A    between atoms: _386  and  _387
REMARK  152  A    between atoms: _386  and  _389
REMARK  153  A    between atoms: _389  and  _390
REMARK                            x       y       z     vdW  Elec       q    Type
REMARK                         _______ _______ _______ _____ _____    ______ ____
ROOT
ATOM      1  O   HOH     1      27.316  38.362  56.871  0.00  0.00    +0.000 OA
ENDROOT
TORSDOF 0
REMARK  Name = ../refined-set-2016/2usn/2usn_pocket.pdb
REMARK  153 active torsions:
REMARK  status: ('A' for Active; 'I' for Inactive)
REMARK    1  A    between atoms: _1  and  _3
REMARK    2  A    between atoms: _3  and  _4
REMARK    3  A    between atoms: _3  and  _6
REMARK    4  A    between atoms: _6  and  _7
REMARK    5  A    between atoms: _10  and  _12
REMARK    6  A    between atoms: _12  and  _13
REMARK    7  A    between atoms: _12  and  _15
REMARK    8  A    between atoms: _15  and  _16
REMARK    9  A    between atoms: _23  and  _24
REMARK   10  A    between atoms: _29  and  _31
REMARK   11  A    between atoms: _31  and  _32
REMARK   12  A    between atoms: _34  and  _36
REMARK   13  A    between atoms: _36  and  _37
REMARK   14  A    between atoms: _36  and  _39
REMARK   15  A    between atoms: _39  and  _40
REMARK   16  A    between atoms: _44  and  _45
REMARK   17  A    between atoms: _50  and  _52
REMARK   18  A    between atoms: _52  and  _53
REMARK   19  A    between atoms: _52  and  _55
REMARK   20  A    between atoms: _55  and  _56
REMARK   21  A    between atoms: _56  and  _57
REMARK   22  A    between atoms: _57  and  _58
REMARK   23  A    between atoms: _58  and  _59
REMARK   24  A    between atoms: _63  and  _65
REMARK   25  A    between atoms: _65  and  _66
REMARK   26  A    between atoms: _65  and  _68
REMARK   27  A    between atoms: _68  and  _69
REMARK   28  A    between atoms: _73  and  ZN_396
REMARK   29  A    between atoms: _74  and  _76
REMARK   30  A    between atoms: _76  and  _77
REMARK   31  A    between atoms: _76  and  _79
REMARK   32  A    between atoms: _79  and  _80
REMARK   33  A    between atoms: _80  and  _82
REMARK   34  A    between atoms: _82  and  ZN_396
REMARK   35  A    between atoms: _83  and  _85
REMARK   36  A    between atoms: _85  and  _86
REMARK   37  A    between atoms: _85  and  _88
REMARK   38  A    between atoms: _88  and  _89
REMARK   39  A    between atoms: _95  and  _97
REMARK   40  A    between atoms: _97  and  _98
REMARK   41  A    between atoms: _97  and  _100
REMARK   42  A    between atoms: _100  and  _101
REMARK   43  A    between atoms: _106  and  _107
REMARK   44  A    between atoms: _110  and  _111
REMARK   45  A    between atoms: _118  and  _119
REMARK   46  A    between atoms: _118  and  _121
REMARK   47  A    between atoms: _121  and  _122
REMARK   48  A    between atoms: _128  and  _130
REMARK   49  A    between atoms: _130  and  _131
REMARK   50  A    between atoms: _130  and  _133
REMARK   51  A    between atoms: _136  and  _138
REMARK   52  A    between atoms: _138  and  _139
REMARK   53  A    between atoms: _138  and  _141
REMARK   54  A    between atoms: _141  and  _142
REMARK   55  A    between atoms: _145  and  _147
REMARK   56  A    between atoms: _147  and  _148
REMARK   57  A    between atoms: _151  and  _153
REMARK   58  A    between atoms: _153  and  _154
REMARK   59  A    between atoms: _153  and  _156
REMARK   60  A    between atoms: _156  and  _157
REMARK   61  A    between atoms: _161  and  ZN_396
REMARK   62  A    between atoms: _162  and  _164
REMARK   63  A    between atoms: _164  and  _165
REMARK   64  A    between atoms: _168  and  _170
REMARK   65  A    between atoms: _170  and  _171
REMARK   66  A    between atoms: _170  and  _173
REMARK   67  A    between atoms: _173  and  _174
REMARK   68  A    between atoms: _179  and  _180
REMARK   69  A    between atoms: _182  and  _184
REMARK   70  A    between atoms: _184  and  _185
REMARK   71  A    between atoms: _189  and  _190
REMARK   72  A    between atoms: _195  and  _197
REMARK   73  A    between atoms: _197  and  _198
REMARK   74  A    between atoms: _200  and  _202
REMARK   75  A    between atoms: _202  and  _203
REMARK   76  A    between atoms: _202  and  _205
REMARK   77  A    between atoms: _205  and  _206
REMARK   78  A    between atoms: _209  and  _211
REMARK   79  A    between atoms: _211  and  _212
REMARK   80  A    between atoms: _211  and  _214
REMARK   81  A    between atoms: _214  and  _215
REMARK   82  A    between atoms: _220  and  _222
REMARK   83  A    between atoms: _222  and  _223
REMARK   84  A    between atoms: _225  and  _227
REMARK   85  A    between atoms: _227  and  _228
REMARK   86  A    between atoms: _227  and  _230
REMARK   87  A    between atoms: _230  and  _231
REMARK   88  A    between atoms: _234  and  _236
REMARK   89  A    between atoms: _236  and  _237
REMARK   90  A    between atoms: _240  and  _242
REMARK   91  A    between atoms: _242  and  _243
REMARK   92  A    between atoms: _242  and  _245
REMARK   93  A    between atoms: _245  and  _246
REMARK   94  A    between atoms: _247  and  ZN_396
REMARK   95  A    between atoms: _251  and  _253
REMARK   96  A    between atoms: _253  and  _254
REMARK   97  A    between atoms: _253  and  _256
REMARK   98  A    between atoms: _259  and  _261
REMARK   99  A    between atoms: _261  and  _262
REMARK  100  A    between atoms: _261  and  _264
REMARK  101  A    between atoms: _264  and  _265
REMARK  102  A    between atoms: _269  and  ZN_395
REMARK  103  A    between atoms: _270  and  _272
REMARK  104  A    between atoms: _272  and  _273
REMARK  105  A    between atoms: _272  and  _275
REMARK  106  A    between atoms: _275  and  _276
REMARK  107  A    between atoms: _276  and  _277
REMARK  108  A    between atoms: _280  and  _282
REMARK  109  A    between atoms: _282  and  _283
REMARK  110  A    between atoms: _282  and  _285
REMARK  111  A    between atoms: _285  and  _286
REMARK  112  A    between atoms: _289  and  _291
REMARK  113  A    between atoms: _291  and  _292
REMARK  114  A    between atoms: _291  and  _294
REMARK  115  A    between atoms: _294  and  _295
REMARK  116  A    between atoms: _299  and  ZN_395
REMARK  117  A    between atoms: _300  and  _302
REMARK  118  A    between atoms: _302  and  _303
REMARK  119  A    between atoms: _302  and  _305
REMARK  120  A    between atoms: _305  and  _306
REMARK  121  A    between atoms: _308  and  _310
REMARK  122  A    between atoms: _310  and  _311
REMARK  123  A    between atoms: _310  and  _313
REMARK  124  A    between atoms: _313  and  _314
REMARK  125  A    between atoms: _317  and  _319
REMARK  126  A    between atoms: _319  and  _320
REMARK  127  A    between atoms: _319  and  _322
REMARK  128  A    between atoms: _322  and  _323
REMARK  129  A    between atoms: _329  and  _331
REMARK  130  A    between atoms: _331  and  _332
REMARK  131  A    between atoms: _331  and  _334
REMARK  132  A    between atoms: _334  and  _335
REMARK  133  A    between atoms: _339  and  ZN_395
REMARK  134  A    between atoms: _340  and  _342
REMARK  135  A    between atoms: _342  and  _343
REMARK  136  A    between atoms: _342  and  _345
REMARK  137  A    between atoms: _345  and  _346
REMARK  138  A    between atoms: _346  and  _347
REMARK  139  A    between atoms: _349  and  _351
REMARK  140  A    between atoms: _351  and  _352
REMARK  141  A    between atoms: _351  and  _354
REMARK  142  A    between atoms: _354  and  _355
REMARK  143  A    between atoms: _360  and  _361
REMARK  144  A    between atoms: _364  and  _365
REMARK  145  A    between atoms: _370  and  _372
REMARK  146  A    between atoms: _372  and  _373
REMARK  147  A    between atoms: _372  and  _375
REMARK  148  A    between atoms: _375  and  _376
REMARK  149  A    between atoms: _381  and  _382
REMARK  150  A    between atoms: _384  and  _386
REMARK  151  A    between atoms: _386  and  _387
REMARK  152  A    between atoms: _386  and  _389
REMARK  153  A    between atoms: _389  and  _390
REMARK                            x       y       z     vdW  Elec       q    Type
REMARK                         _______ _______ _______ _____ _____    ______ ____
ROOT
ATOM      1  O   HOH     1      28.248  50.854  39.356  0.00  0.00    +0.000 OA
ENDROOT
TORSDOF 0
REMARK  Name = ../refined-set-2016/2usn/2usn_pocket.pdb
REMARK  153 active torsions:
REMARK  status: ('A' for Active; 'I' for Inactive)
REMARK    1  A    between atoms: _1  and  _3
REMARK    2  A    between atoms: _3  and  _4
REMARK    3  A    between atoms: _3  and  _6
REMARK    4  A    between atoms: _6  and  _7
REMARK    5  A    between atoms: _10  and  _12
REMARK    6  A    between atoms: _12  and  _13
REMARK    7  A    between atoms: _12  and  _15
REMARK    8  A    between atoms: _15  and  _16
REMARK    9  A    between atoms: _23  and  _24
REMARK   10  A    between atoms: _29  and  _31
REMARK   11  A    between atoms: _31  and  _32
REMARK   12  A    between atoms: _34  and  _36
REMARK   13  A    between atoms: _36  and  _37
REMARK   14  A    between atoms: _36  and  _39
REMARK   15  A    between atoms: _39  and  _40
REMARK   16  A    between atoms: _44  and  _45
REMARK   17  A    between atoms: _50  and  _52
REMARK   18  A    between atoms: _52  and  _53
REMARK   19  A    between atoms: _52  and  _55
REMARK   20  A    between atoms: _55  and  _56
REMARK   21  A    between atoms: _56  and  _57
REMARK   22  A    between atoms: _57  and  _58
REMARK   23  A    between atoms: _58  and  _59
REMARK   24  A    between atoms: _63  and  _65
REMARK   25  A    between atoms: _65  and  _66
REMARK   26  A    between atoms: _65  and  _68
REMARK   27  A    between atoms: _68  and  _69
REMARK   28  A    between atoms: _73  and  ZN_396
REMARK   29  A    between atoms: _74  and  _76
REMARK   30  A    between atoms: _76  and  _77
REMARK   31  A    between atoms: _76  and  _79
REMARK   32  A    between atoms: _79  and  _80
REMARK   33  A    between atoms: _80  and  _82
REMARK   34  A    between atoms: _82  and  ZN_396
REMARK   35  A    between atoms: _83  and  _85
REMARK   36  A    between atoms: _85  and  _86
REMARK   37  A    between atoms: _85  and  _88
REMARK   38  A    between atoms: _88  and  _89
REMARK   39  A    between atoms: _95  and  _97
REMARK   40  A    between atoms: _97  and  _98
REMARK   41  A    between atoms: _97  and  _100
REMARK   42  A    between atoms: _100  and  _101
REMARK   43  A    between atoms: _106  and  _107
REMARK   44  A    between atoms: _110  and  _111
REMARK   45  A    between atoms: _118  and  _119
REMARK   46  A    between atoms: _118  and  _121
REMARK   47  A    between atoms: _121  and  _122
REMARK   48  A    between atoms: _128  and  _130
REMARK   49  A    between atoms: _130  and  _131
REMARK   50  A    between atoms: _130  and  _133
REMARK   51  A    between atoms: _136  and  _138
REMARK   52  A    between atoms: _138  and  _139
REMARK   53  A    between atoms: _138  and  _141
REMARK   54  A    between atoms: _141  and  _142
REMARK   55  A    between atoms: _145  and  _147
REMARK   56  A    between atoms: _147  and  _148
REMARK   57  A    between atoms: _151  and  _153
REMARK   58  A    between atoms: _153  and  _154
REMARK   59  A    between atoms: _153  and  _156
REMARK   60  A    between atoms: _156  and  _157
REMARK   61  A    between atoms: _161  and  ZN_396
REMARK   62  A    between atoms: _162  and  _164
REMARK   63  A    between atoms: _164  and  _165
REMARK   64  A    between atoms: _168  and  _170
REMARK   65  A    between atoms: _170  and  _171
REMARK   66  A    between atoms: _170  and  _173
REMARK   67  A    between atoms: _173  and  _174
REMARK   68  A    between atoms: _179  and  _180
REMARK   69  A    between atoms: _182  and  _184
REMARK   70  A    between atoms: _184  and  _185
REMARK   71  A    between atoms: _189  and  _190
REMARK   72  A    between atoms: _195  and  _197
REMARK   73  A    between atoms: _197  and  _198
REMARK   74  A    between atoms: _200  and  _202
REMARK   75  A    between atoms: _202  and  _203
REMARK   76  A    between atoms: _202  and  _205
REMARK   77  A    between atoms: _205  and  _206
REMARK   78  A    between atoms: _209  and  _211
REMARK   79  A    between atoms: _211  and  _212
REMARK   80  A    between atoms: _211  and  _214
REMARK   81  A    between atoms: _214  and  _215
REMARK   82  A    between atoms: _220  and  _222
REMARK   83  A    between atoms: _222  and  _223
REMARK   84  A    between atoms: _225  and  _227
REMARK   85  A    between atoms: _227  and  _228
REMARK   86  A    between atoms: _227  and  _230
REMARK   87  A    between atoms: _230  and  _231
REMARK   88  A    between atoms: _234  and  _236
REMARK   89  A    between atoms: _236  and  _237
REMARK   90  A    between atoms: _240  and  _242
REMARK   91  A    between atoms: _242  and  _243
REMARK   92  A    between atoms: _242  and  _245
REMARK   93  A    between atoms: _245  and  _246
REMARK   94  A    between atoms: _247  and  ZN_396
REMARK   95  A    between atoms: _251  and  _253
REMARK   96  A    between atoms: _253  and  _254
REMARK   97  A    between atoms: _253  and  _256
REMARK   98  A    between atoms: _259  and  _261
REMARK   99  A    between atoms: _261  and  _262
REMARK  100  A    between atoms: _261  and  _264
REMARK  101  A    between atoms: _264  and  _265
REMARK  102  A    between atoms: _269  and  ZN_395
REMARK  103  A    between atoms: _270  and  _272
REMARK  104  A    between atoms: _272  and  _273
REMARK  105  A    between atoms: _272  and  _275
REMARK  106  A    between atoms: _275  and  _276
REMARK  107  A    between atoms: _276  and  _277
REMARK  108  A    between atoms: _280  and  _282
REMARK  109  A    between atoms: _282  and  _283
REMARK  110  A    between atoms: _282  and  _285
REMARK  111  A    between atoms: _285  and  _286
REMARK  112  A    between atoms: _289  and  _291
REMARK  113  A    between atoms: _291  and  _292
REMARK  114  A    between atoms: _291  and  _294
REMARK  115  A    between atoms: _294  and  _295
REMARK  116  A    between atoms: _299  and  ZN_395
REMARK  117  A    between atoms: _300  and  _302
REMARK  118  A    between atoms: _302  and  _303
REMARK  119  A    between atoms: _302  and  _305
REMARK  120  A    between atoms: _305  and  _306
REMARK  121  A    between atoms: _308  and  _310
REMARK  122  A    between atoms: _310  and  _311
REMARK  123  A    between atoms: _310  and  _313
REMARK  124  A    between atoms: _313  and  _314
REMARK  125  A    between atoms: _317  and  _319
REMARK  126  A    between atoms: _319  and  _320
REMARK  127  A    between atoms: _319  and  _322
REMARK  128  A    between atoms: _322  and  _323
REMARK  129  A    between atoms: _329  and  _331
REMARK  130  A    between atoms: _331  and  _332
REMARK  131  A    between atoms: _331  and  _334
REMARK  132  A    between atoms: _334  and  _335
REMARK  133  A    between atoms: _339  and  ZN_395
REMARK  134  A    between atoms: _340  and  _342
REMARK  135  A    between atoms: _342  and  _343
REMARK  136  A    between atoms: _342  and  _345
REMARK  137  A    between atoms: _345  and  _346
REMARK  138  A    between atoms: _346  and  _347
REMARK  139  A    between atoms: _349  and  _351
REMARK  140  A    between atoms: _351  and  _352
REMARK  141  A    between atoms: _351  and  _354
REMARK  142  A    between atoms: _354  and  _355
REMARK  143  A    between atoms: _360  and  _361
REMARK  144  A    between atoms: _364  and  _365
REMARK  145  A    between atoms: _370  and  _372
REMARK  146  A    between atoms: _372  and  _373
REMARK  147  A    between atoms: _372  and  _375
REMARK  148  A    between atoms: _375  and  _376
REMARK  149  A    between atoms: _381  and  _382
REMARK  150  A    between atoms: _384  and  _386
REMARK  151  A    between atoms: _386  and  _387
REMARK  152  A    between atoms: _386  and  _389
REMARK  153  A    between atoms: _389  and  _390
REMARK                            x       y       z     vdW  Elec       q    Type
REMARK                         _______ _______ _______ _____ _____    ______ ____
ROOT
ATOM      1  O   HOH     1      28.053  48.916  41.749  0.00  0.00    +0.000 OA
ENDROOT
TORSDOF 0
REMARK  Name = ../refined-set-2016/2usn/2usn_pocket.pdb
REMARK  153 active torsions:
REMARK  status: ('A' for Active; 'I' for Inactive)
REMARK    1  A    between atoms: _1  and  _3
REMARK    2  A    between atoms: _3  and  _4
REMARK    3  A    between atoms: _3  and  _6
REMARK    4  A    between atoms: _6  and  _7
REMARK    5  A    between atoms: _10  and  _12
REMARK    6  A    between atoms: _12  and  _13
REMARK    7  A    between atoms: _12  and  _15
REMARK    8  A    between atoms: _15  and  _16
REMARK    9  A    between atoms: _23  and  _24
REMARK   10  A    between atoms: _29  and  _31
REMARK   11  A    between atoms: _31  and  _32
REMARK   12  A    between atoms: _34  and  _36
REMARK   13  A    between atoms: _36  and  _37
REMARK   14  A    between atoms: _36  and  _39
REMARK   15  A    between atoms: _39  and  _40
REMARK   16  A    between atoms: _44  and  _45
REMARK   17  A    between atoms: _50  and  _52
REMARK   18  A    between atoms: _52  and  _53
REMARK   19  A    between atoms: _52  and  _55
REMARK   20  A    between atoms: _55  and  _56
REMARK   21  A    between atoms: _56  and  _57
REMARK   22  A    between atoms: _57  and  _58
REMARK   23  A    between atoms: _58  and  _59
REMARK   24  A    between atoms: _63  and  _65
REMARK   25  A    between atoms: _65  and  _66
REMARK   26  A    between atoms: _65  and  _68
REMARK   27  A    between atoms: _68  and  _69
REMARK   28  A    between atoms: _73  and  ZN_396
REMARK   29  A    between atoms: _74  and  _76
REMARK   30  A    between atoms: _76  and  _77
REMARK   31  A    between atoms: _76  and  _79
REMARK   32  A    between atoms: _79  and  _80
REMARK   33  A    between atoms: _80  and  _82
REMARK   34  A    between atoms: _82  and  ZN_396
REMARK   35  A    between atoms: _83  and  _85
REMARK   36  A    between atoms: _85  and  _86
REMARK   37  A    between atoms: _85  and  _88
REMARK   38  A    between atoms: _88  and  _89
REMARK   39  A    between atoms: _95  and  _97
REMARK   40  A    between atoms: _97  and  _98
REMARK   41  A    between atoms: _97  and  _100
REMARK   42  A    between atoms: _100  and  _101
REMARK   43  A    between atoms: _106  and  _107
REMARK   44  A    between atoms: _110  and  _111
REMARK   45  A    between atoms: _118  and  _119
REMARK   46  A    between atoms: _118  and  _121
REMARK   47  A    between atoms: _121  and  _122
REMARK   48  A    between atoms: _128  and  _130
REMARK   49  A    between atoms: _130  and  _131
REMARK   50  A    between atoms: _130  and  _133
REMARK   51  A    between atoms: _136  and  _138
REMARK   52  A    between atoms: _138  and  _139
REMARK   53  A    between atoms: _138  and  _141
REMARK   54  A    between atoms: _141  and  _142
REMARK   55  A    between atoms: _145  and  _147
REMARK   56  A    between atoms: _147  and  _148
REMARK   57  A    between atoms: _151  and  _153
REMARK   58  A    between atoms: _153  and  _154
REMARK   59  A    between atoms: _153  and  _156
REMARK   60  A    between atoms: _156  and  _157
REMARK   61  A    between atoms: _161  and  ZN_396
REMARK   62  A    between atoms: _162  and  _164
REMARK   63  A    between atoms: _164  and  _165
REMARK   64  A    between atoms: _168  and  _170
REMARK   65  A    between atoms: _170  and  _171
REMARK   66  A    between atoms: _170  and  _173
REMARK   67  A    between atoms: _173  and  _174
REMARK   68  A    between atoms: _179  and  _180
REMARK   69  A    between atoms: _182  and  _184
REMARK   70  A    between atoms: _184  and  _185
REMARK   71  A    between atoms: _189  and  _190
REMARK   72  A    between atoms: _195  and  _197
REMARK   73  A    between atoms: _197  and  _198
REMARK   74  A    between atoms: _200  and  _202
REMARK   75  A    between atoms: _202  and  _203
REMARK   76  A    between atoms: _202  and  _205
REMARK   77  A    between atoms: _205  and  _206
REMARK   78  A    between atoms: _209  and  _211
REMARK   79  A    between atoms: _211  and  _212
REMARK   80  A    between atoms: _211  and  _214
REMARK   81  A    between atoms: _214  and  _215
REMARK   82  A    between atoms: _220  and  _222
REMARK   83  A    between atoms: _222  and  _223
REMARK   84  A    between atoms: _225  and  _227
REMARK   85  A    between atoms: _227  and  _228
REMARK   86  A    between atoms: _227  and  _230
REMARK   87  A    between atoms: _230  and  _231
REMARK   88  A    between atoms: _234  and  _236
REMARK   89  A    between atoms: _236  and  _237
REMARK   90  A    between atoms: _240  and  _242
REMARK   91  A    between atoms: _242  and  _243
REMARK   92  A    between atoms: _242  and  _245
REMARK   93  A    between atoms: _245  and  _246
REMARK   94  A    between atoms: _247  and  ZN_396
REMARK   95  A    between atoms: _251  and  _253
REMARK   96  A    between atoms: _253  and  _254
REMARK   97  A    between atoms: _253  and  _256
REMARK   98  A    between atoms: _259  and  _261
REMARK   99  A    between atoms: _261  and  _262
REMARK  100  A    between atoms: _261  and  _264
REMARK  101  A    between atoms: _264  and  _265
REMARK  102  A    between atoms: _269  and  ZN_395
REMARK  103  A    between atoms: _270  and  _272
REMARK  104  A    between atoms: _272  and  _273
REMARK  105  A    between atoms: _272  and  _275
REMARK  106  A    between atoms: _275  and  _276
REMARK  107  A    between atoms: _276  and  _277
REMARK  108  A    between atoms: _280  and  _282
REMARK  109  A    between atoms: _282  and  _283
REMARK  110  A    between atoms: _282  and  _285
REMARK  111  A    between atoms: _285  and  _286
REMARK  112  A    between atoms: _289  and  _291
REMARK  113  A    between atoms: _291  and  _292
REMARK  114  A    between atoms: _291  and  _294
REMARK  115  A    between atoms: _294  and  _295
REMARK  116  A    between atoms: _299  and  ZN_395
REMARK  117  A    between atoms: _300  and  _302
REMARK  118  A    between atoms: _302  and  _303
REMARK  119  A    between atoms: _302  and  _305
REMARK  120  A    between atoms: _305  and  _306
REMARK  121  A    between atoms: _308  and  _310
REMARK  122  A    between atoms: _310  and  _311
REMARK  123  A    between atoms: _310  and  _313
REMARK  124  A    between atoms: _313  and  _314
REMARK  125  A    between atoms: _317  and  _319
REMARK  126  A    between atoms: _319  and  _320
REMARK  127  A    between atoms: _319  and  _322
REMARK  128  A    between atoms: _322  and  _323
REMARK  129  A    between atoms: _329  and  _331
REMARK  130  A    between atoms: _331  and  _332
REMARK  131  A    between atoms: _331  and  _334
REMARK  132  A    between atoms: _334  and  _335
REMARK  133  A    between atoms: _339  and  ZN_395
REMARK  134  A    between atoms: _340  and  _342
REMARK  135  A    between atoms: _342  and  _343
REMARK  136  A    between atoms: _342  and  _345
REMARK  137  A    between atoms: _345  and  _346
REMARK  138  A    between atoms: _346  and  _347
REMARK  139  A    between atoms: _349  and  _351
REMARK  140  A    between atoms: _351  and  _352
REMARK  141  A    between atoms: _351  and  _354
REMARK  142  A    between atoms: _354  and  _355
REMARK  143  A    between atoms: _360  and  _361
REMARK  144  A    between atoms: _364  and  _365
REMARK  145  A    between atoms: _370  and  _372
REMARK  146  A    between atoms: _372  and  _373
REMARK  147  A    between atoms: _372  and  _375
REMARK  148  A    between atoms: _375  and  _376
REMARK  149  A    between atoms: _381  and  _382
REMARK  150  A    between atoms: _384  and  _386
REMARK  151  A    between atoms: _386  and  _387
REMARK  152  A    between atoms: _386  and  _389
REMARK  153  A    between atoms: _389  and  _390
REMARK                            x       y       z     vdW  Elec       q    Type
REMARK                         _______ _______ _______ _____ _____    ______ ____
ROOT
ATOM      1  O   HOH     1      27.420  52.400  53.399  0.00  0.00    +0.000 OA
ENDROOT
TORSDOF 0
REMARK  Name = ../refined-set-2016/2usn/2usn_pocket.pdb
REMARK  153 active torsions:
REMARK  status: ('A' for Active; 'I' for Inactive)
REMARK    1  A    between atoms: _1  and  _3
REMARK    2  A    between atoms: _3  and  _4
REMARK    3  A    between atoms: _3  and  _6
REMARK    4  A    between atoms: _6  and  _7
REMARK    5  A    between atoms: _10  and  _12
REMARK    6  A    between atoms: _12  and  _13
REMARK    7  A    between atoms: _12  and  _15
REMARK    8  A    between atoms: _15  and  _16
REMARK    9  A    between atoms: _23  and  _24
REMARK   10  A    between atoms: _29  and  _31
REMARK   11  A    between atoms: _31  and  _32
REMARK   12  A    between atoms: _34  and  _36
REMARK   13  A    between atoms: _36  and  _37
REMARK   14  A    between atoms: _36  and  _39
REMARK   15  A    between atoms: _39  and  _40
REMARK   16  A    between atoms: _44  and  _45
REMARK   17  A    between atoms: _50  and  _52
REMARK   18  A    between atoms: _52  and  _53
REMARK   19  A    between atoms: _52  and  _55
REMARK   20  A    between atoms: _55  and  _56
REMARK   21  A    between atoms: _56  and  _57
REMARK   22  A    between atoms: _57  and  _58
REMARK   23  A    between atoms: _58  and  _59
REMARK   24  A    between atoms: _63  and  _65
REMARK   25  A    between atoms: _65  and  _66
REMARK   26  A    between atoms: _65  and  _68
REMARK   27  A    between atoms: _68  and  _69
REMARK   28  A    between atoms: _73  and  ZN_396
REMARK   29  A    between atoms: _74  and  _76
REMARK   30  A    between atoms: _76  and  _77
REMARK   31  A    between atoms: _76  and  _79
REMARK   32  A    between atoms: _79  and  _80
REMARK   33  A    between atoms: _80  and  _82
REMARK   34  A    between atoms: _82  and  ZN_396
REMARK   35  A    between atoms: _83  and  _85
REMARK   36  A    between atoms: _85  and  _86
REMARK   37  A    between atoms: _85  and  _88
REMARK   38  A    between atoms: _88  and  _89
REMARK   39  A    between atoms: _95  and  _97
REMARK   40  A    between atoms: _97  and  _98
REMARK   41  A    between atoms: _97  and  _100
REMARK   42  A    between atoms: _100  and  _101
REMARK   43  A    between atoms: _106  and  _107
REMARK   44  A    between atoms: _110  and  _111
REMARK   45  A    between atoms: _118  and  _119
REMARK   46  A    between atoms: _118  and  _121
REMARK   47  A    between atoms: _121  and  _122
REMARK   48  A    between atoms: _128  and  _130
REMARK   49  A    between atoms: _130  and  _131
REMARK   50  A    between atoms: _130  and  _133
REMARK   51  A    between atoms: _136  and  _138
REMARK   52  A    between atoms: _138  and  _139
REMARK   53  A    between atoms: _138  and  _141
REMARK   54  A    between atoms: _141  and  _142
REMARK   55  A    between atoms: _145  and  _147
REMARK   56  A    between atoms: _147  and  _148
REMARK   57  A    between atoms: _151  and  _153
REMARK   58  A    between atoms: _153  and  _154
REMARK   59  A    between atoms: _153  and  _156
REMARK   60  A    between atoms: _156  and  _157
REMARK   61  A    between atoms: _161  and  ZN_396
REMARK   62  A    between atoms: _162  and  _164
REMARK   63  A    between atoms: _164  and  _165
REMARK   64  A    between atoms: _168  and  _170
REMARK   65  A    between atoms: _170  and  _171
REMARK   66  A    between atoms: _170  and  _173
REMARK   67  A    between atoms: _173  and  _174
REMARK   68  A    between atoms: _179  and  _180
REMARK   69  A    between atoms: _182  and  _184
REMARK   70  A    between atoms: _184  and  _185
REMARK   71  A    between atoms: _189  and  _190
REMARK   72  A    between atoms: _195  and  _197
REMARK   73  A    between atoms: _197  and  _198
REMARK   74  A    between atoms: _200  and  _202
REMARK   75  A    between atoms: _202  and  _203
REMARK   76  A    between atoms: _202  and  _205
REMARK   77  A    between atoms: _205  and  _206
REMARK   78  A    between atoms: _209  and  _211
REMARK   79  A    between atoms: _211  and  _212
REMARK   80  A    between atoms: _211  and  _214
REMARK   81  A    between atoms: _214  and  _215
REMARK   82  A    between atoms: _220  and  _222
REMARK   83  A    between atoms: _222  and  _223
REMARK   84  A    between atoms: _225  and  _227
REMARK   85  A    between atoms: _227  and  _228
REMARK   86  A    between atoms: _227  and  _230
REMARK   87  A    between atoms: _230  and  _231
REMARK   88  A    between atoms: _234  and  _236
REMARK   89  A    between atoms: _236  and  _237
REMARK   90  A    between atoms: _240  and  _242
REMARK   91  A    between atoms: _242  and  _243
REMARK   92  A    between atoms: _242  and  _245
REMARK   93  A    between atoms: _245  and  _246
REMARK   94  A    between atoms: _247  and  ZN_396
REMARK   95  A    between atoms: _251  and  _253
REMARK   96  A    between atoms: _253  and  _254
REMARK   97  A    between atoms: _253  and  _256
REMARK   98  A    between atoms: _259  and  _261
REMARK   99  A    between atoms: _261  and  _262
REMARK  100  A    between atoms: _261  and  _264
REMARK  101  A    between atoms: _264  and  _265
REMARK  102  A    between atoms: _269  and  ZN_395
REMARK  103  A    between atoms: _270  and  _272
REMARK  104  A    between atoms: _272  and  _273
REMARK  105  A    between atoms: _272  and  _275
REMARK  106  A    between atoms: _275  and  _276
REMARK  107  A    between atoms: _276  and  _277
REMARK  108  A    between atoms: _280  and  _282
REMARK  109  A    between atoms: _282  and  _283
REMARK  110  A    between atoms: _282  and  _285
REMARK  111  A    between atoms: _285  and  _286
REMARK  112  A    between atoms: _289  and  _291
REMARK  113  A    between atoms: _291  and  _292
REMARK  114  A    between atoms: _291  and  _294
REMARK  115  A    between atoms: _294  and  _295
REMARK  116  A    between atoms: _299  and  ZN_395
REMARK  117  A    between atoms: _300  and  _302
REMARK  118  A    between atoms: _302  and  _303
REMARK  119  A    between atoms: _302  and  _305
REMARK  120  A    between atoms: _305  and  _306
REMARK  121  A    between atoms: _308  and  _310
REMARK  122  A    between atoms: _310  and  _311
REMARK  123  A    between atoms: _310  and  _313
REMARK  124  A    between atoms: _313  and  _314
REMARK  125  A    between atoms: _317  and  _319
REMARK  126  A    between atoms: _319  and  _320
REMARK  127  A    between atoms: _319  and  _322
REMARK  128  A    between atoms: _322  and  _323
REMARK  129  A    between atoms: _329  and  _331
REMARK  130  A    between atoms: _331  and  _332
REMARK  131  A    between atoms: _331  and  _334
REMARK  132  A    between atoms: _334  and  _335
REMARK  133  A    between atoms: _339  and  ZN_395
REMARK  134  A    between atoms: _340  and  _342
REMARK  135  A    between atoms: _342  and  _343
REMARK  136  A    between atoms: _342  and  _345
REMARK  137  A    between atoms: _345  and  _346
REMARK  138  A    between atoms: _346  and  _347
REMARK  139  A    between atoms: _349  and  _351
REMARK  140  A    between atoms: _351  and  _352
REMARK  141  A    between atoms: _351  and  _354
REMARK  142  A    between atoms: _354  and  _355
REMARK  143  A    between atoms: _360  and  _361
REMARK  144  A    between atoms: _364  and  _365
REMARK  145  A    between atoms: _370  and  _372
REMARK  146  A    between atoms: _372  and  _373
REMARK  147  A    between atoms: _372  and  _375
REMARK  148  A    between atoms: _375  and  _376
REMARK  149  A    between atoms: _381  and  _382
REMARK  150  A    between atoms: _384  and  _386
REMARK  151  A    between atoms: _386  and  _387
REMARK  152  A    between atoms: _386  and  _389
REMARK  153  A    between atoms: _389  and  _390
REMARK                            x       y       z     vdW  Elec       q    Type
REMARK                         _______ _______ _______ _____ _____    ______ ____
ROOT
ATOM      1  O   HOH     1      23.484  41.030  39.911  0.00  0.00    +0.000 OA
ENDROOT
TORSDOF 0
REMARK  Name = ../refined-set-2016/2usn/2usn_pocket.pdb
REMARK  153 active torsions:
REMARK  status: ('A' for Active; 'I' for Inactive)
REMARK    1  A    between atoms: _1  and  _3
REMARK    2  A    between atoms: _3  and  _4
REMARK    3  A    between atoms: _3  and  _6
REMARK    4  A    between atoms: _6  and  _7
REMARK    5  A    between atoms: _10  and  _12
REMARK    6  A    between atoms: _12  and  _13
REMARK    7  A    between atoms: _12  and  _15
REMARK    8  A    between atoms: _15  and  _16
REMARK    9  A    between atoms: _23  and  _24
REMARK   10  A    between atoms: _29  and  _31
REMARK   11  A    between atoms: _31  and  _32
REMARK   12  A    between atoms: _34  and  _36
REMARK   13  A    between atoms: _36  and  _37
REMARK   14  A    between atoms: _36  and  _39
REMARK   15  A    between atoms: _39  and  _40
REMARK   16  A    between atoms: _44  and  _45
REMARK   17  A    between atoms: _50  and  _52
REMARK   18  A    between atoms: _52  and  _53
REMARK   19  A    between atoms: _52  and  _55
REMARK   20  A    between atoms: _55  and  _56
REMARK   21  A    between atoms: _56  and  _57
REMARK   22  A    between atoms: _57  and  _58
REMARK   23  A    between atoms: _58  and  _59
REMARK   24  A    between atoms: _63  and  _65
REMARK   25  A    between atoms: _65  and  _66
REMARK   26  A    between atoms: _65  and  _68
REMARK   27  A    between atoms: _68  and  _69
REMARK   28  A    between atoms: _73  and  ZN_396
REMARK   29  A    between atoms: _74  and  _76
REMARK   30  A    between atoms: _76  and  _77
REMARK   31  A    between atoms: _76  and  _79
REMARK   32  A    between atoms: _79  and  _80
REMARK   33  A    between atoms: _80  and  _82
REMARK   34  A    between atoms: _82  and  ZN_396
REMARK   35  A    between atoms: _83  and  _85
REMARK   36  A    between atoms: _85  and  _86
REMARK   37  A    between atoms: _85  and  _88
REMARK   38  A    between atoms: _88  and  _89
REMARK   39  A    between atoms: _95  and  _97
REMARK   40  A    between atoms: _97  and  _98
REMARK   41  A    between atoms: _97  and  _100
REMARK   42  A    between atoms: _100  and  _101
REMARK   43  A    between atoms: _106  and  _107
REMARK   44  A    between atoms: _110  and  _111
REMARK   45  A    between atoms: _118  and  _119
REMARK   46  A    between atoms: _118  and  _121
REMARK   47  A    between atoms: _121  and  _122
REMARK   48  A    between atoms: _128  and  _130
REMARK   49  A    between atoms: _130  and  _131
REMARK   50  A    between atoms: _130  and  _133
REMARK   51  A    between atoms: _136  and  _138
REMARK   52  A    between atoms: _138  and  _139
REMARK   53  A    between atoms: _138  and  _141
REMARK   54  A    between atoms: _141  and  _142
REMARK   55  A    between atoms: _145  and  _147
REMARK   56  A    between atoms: _147  and  _148
REMARK   57  A    between atoms: _151  and  _153
REMARK   58  A    between atoms: _153  and  _154
REMARK   59  A    between atoms: _153  and  _156
REMARK   60  A    between atoms: _156  and  _157
REMARK   61  A    between atoms: _161  and  ZN_396
REMARK   62  A    between atoms: _162  and  _164
REMARK   63  A    between atoms: _164  and  _165
REMARK   64  A    between atoms: _168  and  _170
REMARK   65  A    between atoms: _170  and  _171
REMARK   66  A    between atoms: _170  and  _173
REMARK   67  A    between atoms: _173  and  _174
REMARK   68  A    between atoms: _179  and  _180
REMARK   69  A    between atoms: _182  and  _184
REMARK   70  A    between atoms: _184  and  _185
REMARK   71  A    between atoms: _189  and  _190
REMARK   72  A    between atoms: _195  and  _197
REMARK   73  A    between atoms: _197  and  _198
REMARK   74  A    between atoms: _200  and  _202
REMARK   75  A    between atoms: _202  and  _203
REMARK   76  A    between atoms: _202  and  _205
REMARK   77  A    between atoms: _205  and  _206
REMARK   78  A    between atoms: _209  and  _211
REMARK   79  A    between atoms: _211  and  _212
REMARK   80  A    between atoms: _211  and  _214
REMARK   81  A    between atoms: _214  and  _215
REMARK   82  A    between atoms: _220  and  _222
REMARK   83  A    between atoms: _222  and  _223
REMARK   84  A    between atoms: _225  and  _227
REMARK   85  A    between atoms: _227  and  _228
REMARK   86  A    between atoms: _227  and  _230
REMARK   87  A    between atoms: _230  and  _231
REMARK   88  A    between atoms: _234  and  _236
REMARK   89  A    between atoms: _236  and  _237
REMARK   90  A    between atoms: _240  and  _242
REMARK   91  A    between atoms: _242  and  _243
REMARK   92  A    between atoms: _242  and  _245
REMARK   93  A    between atoms: _245  and  _246
REMARK   94  A    between atoms: _247  and  ZN_396
REMARK   95  A    between atoms: _251  and  _253
REMARK   96  A    between atoms: _253  and  _254
REMARK   97  A    between atoms: _253  and  _256
REMARK   98  A    between atoms: _259  and  _261
REMARK   99  A    between atoms: _261  and  _262
REMARK  100  A    between atoms: _261  and  _264
REMARK  101  A    between atoms: _264  and  _265
REMARK  102  A    between atoms: _269  and  ZN_395
REMARK  103  A    between atoms: _270  and  _272
REMARK  104  A    between atoms: _272  and  _273
REMARK  105  A    between atoms: _272  and  _275
REMARK  106  A    between atoms: _275  and  _276
REMARK  107  A    between atoms: _276  and  _277
REMARK  108  A    between atoms: _280  and  _282
REMARK  109  A    between atoms: _282  and  _283
REMARK  110  A    between atoms: _282  and  _285
REMARK  111  A    between atoms: _285  and  _286
REMARK  112  A    between atoms: _289  and  _291
REMARK  113  A    between atoms: _291  and  _292
REMARK  114  A    between atoms: _291  and  _294
REMARK  115  A    between atoms: _294  and  _295
REMARK  116  A    between atoms: _299  and  ZN_395
REMARK  117  A    between atoms: _300  and  _302
REMARK  118  A    between atoms: _302  and  _303
REMARK  119  A    between atoms: _302  and  _305
REMARK  120  A    between atoms: _305  and  _306
REMARK  121  A    between atoms: _308  and  _310
REMARK  122  A    between atoms: _310  and  _311
REMARK  123  A    between atoms: _310  and  _313
REMARK  124  A    between atoms: _313  and  _314
REMARK  125  A    between atoms: _317  and  _319
REMARK  126  A    between atoms: _319  and  _320
REMARK  127  A    between atoms: _319  and  _322
REMARK  128  A    between atoms: _322  and  _323
REMARK  129  A    between atoms: _329  and  _331
REMARK  130  A    between atoms: _331  and  _332
REMARK  131  A    between atoms: _331  and  _334
REMARK  132  A    between atoms: _334  and  _335
REMARK  133  A    between atoms: _339  and  ZN_395
REMARK  134  A    between atoms: _340  and  _342
REMARK  135  A    between atoms: _342  and  _343
REMARK  136  A    between atoms: _342  and  _345
REMARK  137  A    between atoms: _345  and  _346
REMARK  138  A    between atoms: _346  and  _347
REMARK  139  A    between atoms: _349  and  _351
REMARK  140  A    between atoms: _351  and  _352
REMARK  141  A    between atoms: _351  and  _354
REMARK  142  A    between atoms: _354  and  _355
REMARK  143  A    between atoms: _360  and  _361
REMARK  144  A    between atoms: _364  and  _365
REMARK  145  A    between atoms: _370  and  _372
REMARK  146  A    between atoms: _372  and  _373
REMARK  147  A    between atoms: _372  and  _375
REMARK  148  A    between atoms: _375  and  _376
REMARK  149  A    between atoms: _381  and  _382
REMARK  150  A    between atoms: _384  and  _386
REMARK  151  A    between atoms: _386  and  _387
REMARK  152  A    between atoms: _386  and  _389
REMARK  153  A    between atoms: _389  and  _390
REMARK                            x       y       z     vdW  Elec       q    Type
REMARK                         _______ _______ _______ _____ _____    ______ ____
ROOT
ATOM      1  O   HOH     1      33.413  54.806  46.467  0.00  0.00    +0.000 OA
ENDROOT
TORSDOF 0
REMARK  Name = ../refined-set-2016/2usn/2usn_pocket.pdb
REMARK  153 active torsions:
REMARK  status: ('A' for Active; 'I' for Inactive)
REMARK    1  A    between atoms: _1  and  _3
REMARK    2  A    between atoms: _3  and  _4
REMARK    3  A    between atoms: _3  and  _6
REMARK    4  A    between atoms: _6  and  _7
REMARK    5  A    between atoms: _10  and  _12
REMARK    6  A    between atoms: _12  and  _13
REMARK    7  A    between atoms: _12  and  _15
REMARK    8  A    between atoms: _15  and  _16
REMARK    9  A    between atoms: _23  and  _24
REMARK   10  A    between atoms: _29  and  _31
REMARK   11  A    between atoms: _31  and  _32
REMARK   12  A    between atoms: _34  and  _36
REMARK   13  A    between atoms: _36  and  _37
REMARK   14  A    between atoms: _36  and  _39
REMARK   15  A    between atoms: _39  and  _40
REMARK   16  A    between atoms: _44  and  _45
REMARK   17  A    between atoms: _50  and  _52
REMARK   18  A    between atoms: _52  and  _53
REMARK   19  A    between atoms: _52  and  _55
REMARK   20  A    between atoms: _55  and  _56
REMARK   21  A    between atoms: _56  and  _57
REMARK   22  A    between atoms: _57  and  _58
REMARK   23  A    between atoms: _58  and  _59
REMARK   24  A    between atoms: _63  and  _65
REMARK   25  A    between atoms: _65  and  _66
REMARK   26  A    between atoms: _65  and  _68
REMARK   27  A    between atoms: _68  and  _69
REMARK   28  A    between atoms: _73  and  ZN_396
REMARK   29  A    between atoms: _74  and  _76
REMARK   30  A    between atoms: _76  and  _77
REMARK   31  A    between atoms: _76  and  _79
REMARK   32  A    between atoms: _79  and  _80
REMARK   33  A    between atoms: _80  and  _82
REMARK   34  A    between atoms: _82  and  ZN_396
REMARK   35  A    between atoms: _83  and  _85
REMARK   36  A    between atoms: _85  and  _86
REMARK   37  A    between atoms: _85  and  _88
REMARK   38  A    between atoms: _88  and  _89
REMARK   39  A    between atoms: _95  and  _97
REMARK   40  A    between atoms: _97  and  _98
REMARK   41  A    between atoms: _97  and  _100
REMARK   42  A    between atoms: _100  and  _101
REMARK   43  A    between atoms: _106  and  _107
REMARK   44  A    between atoms: _110  and  _111
REMARK   45  A    between atoms: _118  and  _119
REMARK   46  A    between atoms: _118  and  _121
REMARK   47  A    between atoms: _121  and  _122
REMARK   48  A    between atoms: _128  and  _130
REMARK   49  A    between atoms: _130  and  _131
REMARK   50  A    between atoms: _130  and  _133
REMARK   51  A    between atoms: _136  and  _138
REMARK   52  A    between atoms: _138  and  _139
REMARK   53  A    between atoms: _138  and  _141
REMARK   54  A    between atoms: _141  and  _142
REMARK   55  A    between atoms: _145  and  _147
REMARK   56  A    between atoms: _147  and  _148
REMARK   57  A    between atoms: _151  and  _153
REMARK   58  A    between atoms: _153  and  _154
REMARK   59  A    between atoms: _153  and  _156
REMARK   60  A    between atoms: _156  and  _157
REMARK   61  A    between atoms: _161  and  ZN_396
REMARK   62  A    between atoms: _162  and  _164
REMARK   63  A    between atoms: _164  and  _165
REMARK   64  A    between atoms: _168  and  _170
REMARK   65  A    between atoms: _170  and  _171
REMARK   66  A    between atoms: _170  and  _173
REMARK   67  A    between atoms: _173  and  _174
REMARK   68  A    between atoms: _179  and  _180
REMARK   69  A    between atoms: _182  and  _184
REMARK   70  A    between atoms: _184  and  _185
REMARK   71  A    between atoms: _189  and  _190
REMARK   72  A    between atoms: _195  and  _197
REMARK   73  A    between atoms: _197  and  _198
REMARK   74  A    between atoms: _200  and  _202
REMARK   75  A    between atoms: _202  and  _203
REMARK   76  A    between atoms: _202  and  _205
REMARK   77  A    between atoms: _205  and  _206
REMARK   78  A    between atoms: _209  and  _211
REMARK   79  A    between atoms: _211  and  _212
REMARK   80  A    between atoms: _211  and  _214
REMARK   81  A    between atoms: _214  and  _215
REMARK   82  A    between atoms: _220  and  _222
REMARK   83  A    between atoms: _222  and  _223
REMARK   84  A    between atoms: _225  and  _227
REMARK   85  A    between atoms: _227  and  _228
REMARK   86  A    between atoms: _227  and  _230
REMARK   87  A    between atoms: _230  and  _231
REMARK   88  A    between atoms: _234  and  _236
REMARK   89  A    between atoms: _236  and  _237
REMARK   90  A    between atoms: _240  and  _242
REMARK   91  A    between atoms: _242  and  _243
REMARK   92  A    between atoms: _242  and  _245
REMARK   93  A    between atoms: _245  and  _246
REMARK   94  A    between atoms: _247  and  ZN_396
REMARK   95  A    between atoms: _251  and  _253
REMARK   96  A    between atoms: _253  and  _254
REMARK   97  A    between atoms: _253  and  _256
REMARK   98  A    between atoms: _259  and  _261
REMARK   99  A    between atoms: _261  and  _262
REMARK  100  A    between atoms: _261  and  _264
REMARK  101  A    between atoms: _264  and  _265
REMARK  102  A    between atoms: _269  and  ZN_395
REMARK  103  A    between atoms: _270  and  _272
REMARK  104  A    between atoms: _272  and  _273
REMARK  105  A    between atoms: _272  and  _275
REMARK  106  A    between atoms: _275  and  _276
REMARK  107  A    between atoms: _276  and  _277
REMARK  108  A    between atoms: _280  and  _282
REMARK  109  A    between atoms: _282  and  _283
REMARK  110  A    between atoms: _282  and  _285
REMARK  111  A    between atoms: _285  and  _286
REMARK  112  A    between atoms: _289  and  _291
REMARK  113  A    between atoms: _291  and  _292
REMARK  114  A    between atoms: _291  and  _294
REMARK  115  A    between atoms: _294  and  _295
REMARK  116  A    between atoms: _299  and  ZN_395
REMARK  117  A    between atoms: _300  and  _302
REMARK  118  A    between atoms: _302  and  _303
REMARK  119  A    between atoms: _302  and  _305
REMARK  120  A    between atoms: _305  and  _306
REMARK  121  A    between atoms: _308  and  _310
REMARK  122  A    between atoms: _310  and  _311
REMARK  123  A    between atoms: _310  and  _313
REMARK  124  A    between atoms: _313  and  _314
REMARK  125  A    between atoms: _317  and  _319
REMARK  126  A    between atoms: _319  and  _320
REMARK  127  A    between atoms: _319  and  _322
REMARK  128  A    between atoms: _322  and  _323
REMARK  129  A    between atoms: _329  and  _331
REMARK  130  A    between atoms: _331  and  _332
REMARK  131  A    between atoms: _331  and  _334
REMARK  132  A    between atoms: _334  and  _335
REMARK  133  A    between atoms: _339  and  ZN_395
REMARK  134  A    between atoms: _340  and  _342
REMARK  135  A    between atoms: _342  and  _343
REMARK  136  A    between atoms: _342  and  _345
REMARK  137  A    between atoms: _345  and  _346
REMARK  138  A    between atoms: _346  and  _347
REMARK  139  A    between atoms: _349  and  _351
REMARK  140  A    between atoms: _351  and  _352
REMARK  141  A    between atoms: _351  and  _354
REMARK  142  A    between atoms: _354  and  _355
REMARK  143  A    between atoms: _360  and  _361
REMARK  144  A    between atoms: _364  and  _365
REMARK  145  A    between atoms: _370  and  _372
REMARK  146  A    between atoms: _372  and  _373
REMARK  147  A    between atoms: _372  and  _375
REMARK  148  A    between atoms: _375  and  _376
REMARK  149  A    between atoms: _381  and  _382
REMARK  150  A    between atoms: _384  and  _386
REMARK  151  A    between atoms: _386  and  _387
REMARK  152  A    between atoms: _386  and  _389
REMARK  153  A    between atoms: _389  and  _390
REMARK                            x       y       z     vdW  Elec       q    Type
REMARK                         _______ _______ _______ _____ _____    ______ ____
ROOT
ATOM      1  O   HOH     1      25.905  48.500  49.352  0.00  0.00    +0.000 OA
ENDROOT
TORSDOF 0
REMARK  Name = ../refined-set-2016/2usn/2usn_pocket.pdb
REMARK  153 active torsions:
REMARK  status: ('A' for Active; 'I' for Inactive)
REMARK    1  A    between atoms: _1  and  _3
REMARK    2  A    between atoms: _3  and  _4
REMARK    3  A    between atoms: _3  and  _6
REMARK    4  A    between atoms: _6  and  _7
REMARK    5  A    between atoms: _10  and  _12
REMARK    6  A    between atoms: _12  and  _13
REMARK    7  A    between atoms: _12  and  _15
REMARK    8  A    between atoms: _15  and  _16
REMARK    9  A    between atoms: _23  and  _24
REMARK   10  A    between atoms: _29  and  _31
REMARK   11  A    between atoms: _31  and  _32
REMARK   12  A    between atoms: _34  and  _36
REMARK   13  A    between atoms: _36  and  _37
REMARK   14  A    between atoms: _36  and  _39
REMARK   15  A    between atoms: _39  and  _40
REMARK   16  A    between atoms: _44  and  _45
REMARK   17  A    between atoms: _50  and  _52
REMARK   18  A    between atoms: _52  and  _53
REMARK   19  A    between atoms: _52  and  _55
REMARK   20  A    between atoms: _55  and  _56
REMARK   21  A    between atoms: _56  and  _57
REMARK   22  A    between atoms: _57  and  _58
REMARK   23  A    between atoms: _58  and  _59
REMARK   24  A    between atoms: _63  and  _65
REMARK   25  A    between atoms: _65  and  _66
REMARK   26  A    between atoms: _65  and  _68
REMARK   27  A    between atoms: _68  and  _69
REMARK   28  A    between atoms: _73  and  ZN_396
REMARK   29  A    between atoms: _74  and  _76
REMARK   30  A    between atoms: _76  and  _77
REMARK   31  A    between atoms: _76  and  _79
REMARK   32  A    between atoms: _79  and  _80
REMARK   33  A    between atoms: _80  and  _82
REMARK   34  A    between atoms: _82  and  ZN_396
REMARK   35  A    between atoms: _83  and  _85
REMARK   36  A    between atoms: _85  and  _86
REMARK   37  A    between atoms: _85  and  _88
REMARK   38  A    between atoms: _88  and  _89
REMARK   39  A    between atoms: _95  and  _97
REMARK   40  A    between atoms: _97  and  _98
REMARK   41  A    between atoms: _97  and  _100
REMARK   42  A    between atoms: _100  and  _101
REMARK   43  A    between atoms: _106  and  _107
REMARK   44  A    between atoms: _110  and  _111
REMARK   45  A    between atoms: _118  and  _119
REMARK   46  A    between atoms: _118  and  _121
REMARK   47  A    between atoms: _121  and  _122
REMARK   48  A    between atoms: _128  and  _130
REMARK   49  A    between atoms: _130  and  _131
REMARK   50  A    between atoms: _130  and  _133
REMARK   51  A    between atoms: _136  and  _138
REMARK   52  A    between atoms: _138  and  _139
REMARK   53  A    between atoms: _138  and  _141
REMARK   54  A    between atoms: _141  and  _142
REMARK   55  A    between atoms: _145  and  _147
REMARK   56  A    between atoms: _147  and  _148
REMARK   57  A    between atoms: _151  and  _153
REMARK   58  A    between atoms: _153  and  _154
REMARK   59  A    between atoms: _153  and  _156
REMARK   60  A    between atoms: _156  and  _157
REMARK   61  A    between atoms: _161  and  ZN_396
REMARK   62  A    between atoms: _162  and  _164
REMARK   63  A    between atoms: _164  and  _165
REMARK   64  A    between atoms: _168  and  _170
REMARK   65  A    between atoms: _170  and  _171
REMARK   66  A    between atoms: _170  and  _173
REMARK   67  A    between atoms: _173  and  _174
REMARK   68  A    between atoms: _179  and  _180
REMARK   69  A    between atoms: _182  and  _184
REMARK   70  A    between atoms: _184  and  _185
REMARK   71  A    between atoms: _189  and  _190
REMARK   72  A    between atoms: _195  and  _197
REMARK   73  A    between atoms: _197  and  _198
REMARK   74  A    between atoms: _200  and  _202
REMARK   75  A    between atoms: _202  and  _203
REMARK   76  A    between atoms: _202  and  _205
REMARK   77  A    between atoms: _205  and  _206
REMARK   78  A    between atoms: _209  and  _211
REMARK   79  A    between atoms: _211  and  _212
REMARK   80  A    between atoms: _211  and  _214
REMARK   81  A    between atoms: _214  and  _215
REMARK   82  A    between atoms: _220  and  _222
REMARK   83  A    between atoms: _222  and  _223
REMARK   84  A    between atoms: _225  and  _227
REMARK   85  A    between atoms: _227  and  _228
REMARK   86  A    between atoms: _227  and  _230
REMARK   87  A    between atoms: _230  and  _231
REMARK   88  A    between atoms: _234  and  _236
REMARK   89  A    between atoms: _236  and  _237
REMARK   90  A    between atoms: _240  and  _242
REMARK   91  A    between atoms: _242  and  _243
REMARK   92  A    between atoms: _242  and  _245
REMARK   93  A    between atoms: _245  and  _246
REMARK   94  A    between atoms: _247  and  ZN_396
REMARK   95  A    between atoms: _251  and  _253
REMARK   96  A    between atoms: _253  and  _254
REMARK   97  A    between atoms: _253  and  _256
REMARK   98  A    between atoms: _259  and  _261
REMARK   99  A    between atoms: _261  and  _262
REMARK  100  A    between atoms: _261  and  _264
REMARK  101  A    between atoms: _264  and  _265
REMARK  102  A    between atoms: _269  and  ZN_395
REMARK  103  A    between atoms: _270  and  _272
REMARK  104  A    between atoms: _272  and  _273
REMARK  105  A    between atoms: _272  and  _275
REMARK  106  A    between atoms: _275  and  _276
REMARK  107  A    between atoms: _276  and  _277
REMARK  108  A    between atoms: _280  and  _282
REMARK  109  A    between atoms: _282  and  _283
REMARK  110  A    between atoms: _282  and  _285
REMARK  111  A    between atoms: _285  and  _286
REMARK  112  A    between atoms: _289  and  _291
REMARK  113  A    between atoms: _291  and  _292
REMARK  114  A    between atoms: _291  and  _294
REMARK  115  A    between atoms: _294  and  _295
REMARK  116  A    between atoms: _299  and  ZN_395
REMARK  117  A    between atoms: _300  and  _302
REMARK  118  A    between atoms: _302  and  _303
REMARK  119  A    between atoms: _302  and  _305
REMARK  120  A    between atoms: _305  and  _306
REMARK  121  A    between atoms: _308  and  _310
REMARK  122  A    between atoms: _310  and  _311
REMARK  123  A    between atoms: _310  and  _313
REMARK  124  A    between atoms: _313  and  _314
REMARK  125  A    between atoms: _317  and  _319
REMARK  126  A    between atoms: _319  and  _320
REMARK  127  A    between atoms: _319  and  _322
REMARK  128  A    between atoms: _322  and  _323
REMARK  129  A    between atoms: _329  and  _331
REMARK  130  A    between atoms: _331  and  _332
REMARK  131  A    between atoms: _331  and  _334
REMARK  132  A    between atoms: _334  and  _335
REMARK  133  A    between atoms: _339  and  ZN_395
REMARK  134  A    between atoms: _340  and  _342
REMARK  135  A    between atoms: _342  and  _343
REMARK  136  A    between atoms: _342  and  _345
REMARK  137  A    between atoms: _345  and  _346
REMARK  138  A    between atoms: _346  and  _347
REMARK  139  A    between atoms: _349  and  _351
REMARK  140  A    between atoms: _351  and  _352
REMARK  141  A    between atoms: _351  and  _354
REMARK  142  A    between atoms: _354  and  _355
REMARK  143  A    between atoms: _360  and  _361
REMARK  144  A    between atoms: _364  and  _365
REMARK  145  A    between atoms: _370  and  _372
REMARK  146  A    between atoms: _372  and  _373
REMARK  147  A    between atoms: _372  and  _375
REMARK  148  A    between atoms: _375  and  _376
REMARK  149  A    between atoms: _381  and  _382
REMARK  150  A    between atoms: _384  and  _386
REMARK  151  A    between atoms: _386  and  _387
REMARK  152  A    between atoms: _386  and  _389
REMARK  153  A    between atoms: _389  and  _390
REMARK                            x       y       z     vdW  Elec       q    Type
REMARK                         _______ _______ _______ _____ _____    ______ ____
ROOT
ATOM      1  O   HOH     1      33.477  51.815  44.797  0.00  0.00    +0.000 OA
ENDROOT
TORSDOF 0
REMARK  Name = ../refined-set-2016/2usn/2usn_pocket.pdb
REMARK  153 active torsions:
REMARK  status: ('A' for Active; 'I' for Inactive)
REMARK    1  A    between atoms: _1  and  _3
REMARK    2  A    between atoms: _3  and  _4
REMARK    3  A    between atoms: _3  and  _6
REMARK    4  A    between atoms: _6  and  _7
REMARK    5  A    between atoms: _10  and  _12
REMARK    6  A    between atoms: _12  and  _13
REMARK    7  A    between atoms: _12  and  _15
REMARK    8  A    between atoms: _15  and  _16
REMARK    9  A    between atoms: _23  and  _24
REMARK   10  A    between atoms: _29  and  _31
REMARK   11  A    between atoms: _31  and  _32
REMARK   12  A    between atoms: _34  and  _36
REMARK   13  A    between atoms: _36  and  _37
REMARK   14  A    between atoms: _36  and  _39
REMARK   15  A    between atoms: _39  and  _40
REMARK   16  A    between atoms: _44  and  _45
REMARK   17  A    between atoms: _50  and  _52
REMARK   18  A    between atoms: _52  and  _53
REMARK   19  A    between atoms: _52  and  _55
REMARK   20  A    between atoms: _55  and  _56
REMARK   21  A    between atoms: _56  and  _57
REMARK   22  A    between atoms: _57  and  _58
REMARK   23  A    between atoms: _58  and  _59
REMARK   24  A    between atoms: _63  and  _65
REMARK   25  A    between atoms: _65  and  _66
REMARK   26  A    between atoms: _65  and  _68
REMARK   27  A    between atoms: _68  and  _69
REMARK   28  A    between atoms: _73  and  ZN_396
REMARK   29  A    between atoms: _74  and  _76
REMARK   30  A    between atoms: _76  and  _77
REMARK   31  A    between atoms: _76  and  _79
REMARK   32  A    between atoms: _79  and  _80
REMARK   33  A    between atoms: _80  and  _82
REMARK   34  A    between atoms: _82  and  ZN_396
REMARK   35  A    between atoms: _83  and  _85
REMARK   36  A    between atoms: _85  and  _86
REMARK   37  A    between atoms: _85  and  _88
REMARK   38  A    between atoms: _88  and  _89
REMARK   39  A    between atoms: _95  and  _97
REMARK   40  A    between atoms: _97  and  _98
REMARK   41  A    between atoms: _97  and  _100
REMARK   42  A    between atoms: _100  and  _101
REMARK   43  A    between atoms: _106  and  _107
REMARK   44  A    between atoms: _110  and  _111
REMARK   45  A    between atoms: _118  and  _119
REMARK   46  A    between atoms: _118  and  _121
REMARK   47  A    between atoms: _121  and  _122
REMARK   48  A    between atoms: _128  and  _130
REMARK   49  A    between atoms: _130  and  _131
REMARK   50  A    between atoms: _130  and  _133
REMARK   51  A    between atoms: _136  and  _138
REMARK   52  A    between atoms: _138  and  _139
REMARK   53  A    between atoms: _138  and  _141
REMARK   54  A    between atoms: _141  and  _142
REMARK   55  A    between atoms: _145  and  _147
REMARK   56  A    between atoms: _147  and  _148
REMARK   57  A    between atoms: _151  and  _153
REMARK   58  A    between atoms: _153  and  _154
REMARK   59  A    between atoms: _153  and  _156
REMARK   60  A    between atoms: _156  and  _157
REMARK   61  A    between atoms: _161  and  ZN_396
REMARK   62  A    between atoms: _162  and  _164
REMARK   63  A    between atoms: _164  and  _165
REMARK   64  A    between atoms: _168  and  _170
REMARK   65  A    between atoms: _170  and  _171
REMARK   66  A    between atoms: _170  and  _173
REMARK   67  A    between atoms: _173  and  _174
REMARK   68  A    between atoms: _179  and  _180
REMARK   69  A    between atoms: _182  and  _184
REMARK   70  A    between atoms: _184  and  _185
REMARK   71  A    between atoms: _189  and  _190
REMARK   72  A    between atoms: _195  and  _197
REMARK   73  A    between atoms: _197  and  _198
REMARK   74  A    between atoms: _200  and  _202
REMARK   75  A    between atoms: _202  and  _203
REMARK   76  A    between atoms: _202  and  _205
REMARK   77  A    between atoms: _205  and  _206
REMARK   78  A    between atoms: _209  and  _211
REMARK   79  A    between atoms: _211  and  _212
REMARK   80  A    between atoms: _211  and  _214
REMARK   81  A    between atoms: _214  and  _215
REMARK   82  A    between atoms: _220  and  _222
REMARK   83  A    between atoms: _222  and  _223
REMARK   84  A    between atoms: _225  and  _227
REMARK   85  A    between atoms: _227  and  _228
REMARK   86  A    between atoms: _227  and  _230
REMARK   87  A    between atoms: _230  and  _231
REMARK   88  A    between atoms: _234  and  _236
REMARK   89  A    between atoms: _236  and  _237
REMARK   90  A    between atoms: _240  and  _242
REMARK   91  A    between atoms: _242  and  _243
REMARK   92  A    between atoms: _242  and  _245
REMARK   93  A    between atoms: _245  and  _246
REMARK   94  A    between atoms: _247  and  ZN_396
REMARK   95  A    between atoms: _251  and  _253
REMARK   96  A    between atoms: _253  and  _254
REMARK   97  A    between atoms: _253  and  _256
REMARK   98  A    between atoms: _259  and  _261
REMARK   99  A    between atoms: _261  and  _262
REMARK  100  A    between atoms: _261  and  _264
REMARK  101  A    between atoms: _264  and  _265
REMARK  102  A    between atoms: _269  and  ZN_395
REMARK  103  A    between atoms: _270  and  _272
REMARK  104  A    between atoms: _272  and  _273
REMARK  105  A    between atoms: _272  and  _275
REMARK  106  A    between atoms: _275  and  _276
REMARK  107  A    between atoms: _276  and  _277
REMARK  108  A    between atoms: _280  and  _282
REMARK  109  A    between atoms: _282  and  _283
REMARK  110  A    between atoms: _282  and  _285
REMARK  111  A    between atoms: _285  and  _286
REMARK  112  A    between atoms: _289  and  _291
REMARK  113  A    between atoms: _291  and  _292
REMARK  114  A    between atoms: _291  and  _294
REMARK  115  A    between atoms: _294  and  _295
REMARK  116  A    between atoms: _299  and  ZN_395
REMARK  117  A    between atoms: _300  and  _302
REMARK  118  A    between atoms: _302  and  _303
REMARK  119  A    between atoms: _302  and  _305
REMARK  120  A    between atoms: _305  and  _306
REMARK  121  A    between atoms: _308  and  _310
REMARK  122  A    between atoms: _310  and  _311
REMARK  123  A    between atoms: _310  and  _313
REMARK  124  A    between atoms: _313  and  _314
REMARK  125  A    between atoms: _317  and  _319
REMARK  126  A    between atoms: _319  and  _320
REMARK  127  A    between atoms: _319  and  _322
REMARK  128  A    between atoms: _322  and  _323
REMARK  129  A    between atoms: _329  and  _331
REMARK  130  A    between atoms: _331  and  _332
REMARK  131  A    between atoms: _331  and  _334
REMARK  132  A    between atoms: _334  and  _335
REMARK  133  A    between atoms: _339  and  ZN_395
REMARK  134  A    between atoms: _340  and  _342
REMARK  135  A    between atoms: _342  and  _343
REMARK  136  A    between atoms: _342  and  _345
REMARK  137  A    between atoms: _345  and  _346
REMARK  138  A    between atoms: _346  and  _347
REMARK  139  A    between atoms: _349  and  _351
REMARK  140  A    between atoms: _351  and  _352
REMARK  141  A    between atoms: _351  and  _354
REMARK  142  A    between atoms: _354  and  _355
REMARK  143  A    between atoms: _360  and  _361
REMARK  144  A    between atoms: _364  and  _365
REMARK  145  A    between atoms: _370  and  _372
REMARK  146  A    between atoms: _372  and  _373
REMARK  147  A    between atoms: _372  and  _375
REMARK  148  A    between atoms: _375  and  _376
REMARK  149  A    between atoms: _381  and  _382
REMARK  150  A    between atoms: _384  and  _386
REMARK  151  A    between atoms: _386  and  _387
REMARK  152  A    between atoms: _386  and  _389
REMARK  153  A    between atoms: _389  and  _390
REMARK                            x       y       z     vdW  Elec       q    Type
REMARK                         _______ _______ _______ _____ _____    ______ ____
ROOT
ATOM      1  O   HOH     1      32.789  55.237  49.373  0.00  0.00    +0.000 OA
ENDROOT
TORSDOF 0
