REMARK  Name = ../refined-set-2016/4leq/4leq_pocket.pdb
REMARK  218 active torsions:
REMARK  status: ('A' for Active; 'I' for Inactive)
REMARK    1  A    between atoms: _1  and  _3
REMARK    2  A    between atoms: _3  and  _4
REMARK    3  A    between atoms: _3  and  _6
REMARK    4  A    between atoms: _6  and  _7
REMARK    5  A    between atoms: _7  and  _8
REMARK    6  A    between atoms: _11  and  _12
REMARK    7  A    between atoms: _17  and  _19
REMARK    8  A    between atoms: _19  and  _20
REMARK    9  A    between atoms: _19  and  _22
REMARK   10  A    between atoms: _25  and  _27
REMARK   11  A    between atoms: _27  and  _28
REMARK   12  A    between atoms: _30  and  _32
REMARK   13  A    between atoms: _32  and  _33
REMARK   14  A    between atoms: _32  and  _35
REMARK   15  A    between atoms: _35  and  _36
REMARK   16  A    between atoms: _39  and  _41
REMARK   17  A    between atoms: _41  and  _42
REMARK   18  A    between atoms: _45  and  _47
REMARK   19  A    between atoms: _47  and  _48
REMARK   20  A    between atoms: _47  and  _50
REMARK   21  A    between atoms: _50  and  _51
REMARK   22  A    between atoms: _54  and  _56
REMARK   23  A    between atoms: _56  and  _57
REMARK   24  A    between atoms: _59  and  _61
REMARK   25  A    between atoms: _61  and  _62
REMARK   26  A    between atoms: _61  and  _64
REMARK   27  A    between atoms: _64  and  _65
REMARK   28  A    between atoms: _70  and  _72
REMARK   29  A    between atoms: _72  and  _73
REMARK   30  A    between atoms: _72  and  _75
REMARK   31  A    between atoms: _75  and  _76
REMARK   32  A    between atoms: _79  and  _81
REMARK   33  A    between atoms: _81  and  _82
REMARK   34  A    between atoms: _81  and  _84
REMARK   35  A    between atoms: _84  and  _85
REMARK   36  A    between atoms: _90  and  _91
REMARK   37  A    between atoms: _93  and  _95
REMARK   38  A    between atoms: _95  and  _96
REMARK   39  A    between atoms: _95  and  _98
REMARK   40  A    between atoms: _98  and  _99
REMARK   41  A    between atoms: _104  and  _106
REMARK   42  A    between atoms: _106  and  _107
REMARK   43  A    between atoms: _106  and  _109
REMARK   44  A    between atoms: _109  and  _110
REMARK   45  A    between atoms: _113  and  _115
REMARK   46  A    between atoms: _115  and  _116
REMARK   47  A    between atoms: _115  and  _118
REMARK   48  A    between atoms: _118  and  _119
REMARK   49  A    between atoms: _122  and  _124
REMARK   50  A    between atoms: _124  and  _125
REMARK   51  A    between atoms: _124  and  _127
REMARK   52  A    between atoms: _127  and  _128
REMARK   53  A    between atoms: _131  and  _133
REMARK   54  A    between atoms: _133  and  _134
REMARK   55  A    between atoms: _133  and  _136
REMARK   56  A    between atoms: _136  and  _137
REMARK   57  A    between atoms: _139  and  _141
REMARK   58  A    between atoms: _141  and  _142
REMARK   59  A    between atoms: _144  and  _146
REMARK   60  A    between atoms: _146  and  _147
REMARK   61  A    between atoms: _149  and  _151
REMARK   62  A    between atoms: _151  and  _152
REMARK   63  A    between atoms: _151  and  _154
REMARK   64  A    between atoms: _154  and  _155
REMARK   65  A    between atoms: _160  and  _161
REMARK   66  A    between atoms: _163  and  _165
REMARK   67  A    between atoms: _165  and  _166
REMARK   68  A    between atoms: _165  and  _168
REMARK   69  A    between atoms: _168  and  _169
REMARK   70  A    between atoms: _169  and  _170
REMARK   71  A    between atoms: _175  and  _177
REMARK   72  A    between atoms: _177  and  _178
REMARK   73  A    between atoms: _177  and  _180
REMARK   74  A    between atoms: _183  and  _185
REMARK   75  A    between atoms: _185  and  _186
REMARK   76  A    between atoms: _185  and  _188
REMARK   77  A    between atoms: _188  and  _189
REMARK   78  A    between atoms: _189  and  _190
REMARK   79  A    between atoms: _192  and  _194
REMARK   80  A    between atoms: _194  and  _195
REMARK   81  A    between atoms: _194  and  _197
REMARK   82  A    between atoms: _197  and  _198
REMARK   83  A    between atoms: _200  and  _202
REMARK   84  A    between atoms: _202  and  _203
REMARK   85  A    between atoms: _202  and  _205
REMARK   86  A    between atoms: _205  and  _206
REMARK   87  A    between atoms: _209  and  _211
REMARK   88  A    between atoms: _211  and  _212
REMARK   89  A    between atoms: _211  and  _214
REMARK   90  A    between atoms: _214  and  _215
REMARK   91  A    between atoms: _215  and  _216
REMARK   92  A    between atoms: _221  and  _223
REMARK   93  A    between atoms: _223  and  _224
REMARK   94  A    between atoms: _223  and  _226
REMARK   95  A    between atoms: _226  and  _227
REMARK   96  A    between atoms: _227  and  _228
REMARK   97  A    between atoms: _230  and  _232
REMARK   98  A    between atoms: _232  and  _233
REMARK   99  A    between atoms: _236  and  _238
REMARK  100  A    between atoms: _238  and  _239
REMARK  101  A    between atoms: _238  and  _241
REMARK  102  A    between atoms: _241  and  _242
REMARK  103  A    between atoms: _248  and  _250
REMARK  104  A    between atoms: _250  and  _251
REMARK  105  A    between atoms: _250  and  _253
REMARK  106  A    between atoms: _253  and  _254
REMARK  107  A    between atoms: _257  and  _259
REMARK  108  A    between atoms: _259  and  _260
REMARK  109  A    between atoms: _259  and  _262
REMARK  110  A    between atoms: _262  and  _263
REMARK  111  A    between atoms: _263  and  _264
REMARK  112  A    between atoms: _267  and  _269
REMARK  113  A    between atoms: _269  and  _270
REMARK  114  A    between atoms: _269  and  _272
REMARK  115  A    between atoms: _274  and  _276
REMARK  116  A    between atoms: _276  and  _277
REMARK  117  A    between atoms: _276  and  _279
REMARK  118  A    between atoms: _279  and  _280
REMARK  119  A    between atoms: _283  and  _285
REMARK  120  A    between atoms: _285  and  _286
REMARK  121  A    between atoms: _285  and  _288
REMARK  122  A    between atoms: _288  and  _289
REMARK  123  A    between atoms: _291  and  _293
REMARK  124  A    between atoms: _293  and  _294
REMARK  125  A    between atoms: _293  and  _296
REMARK  126  A    between atoms: _296  and  _297
REMARK  127  A    between atoms: _300  and  _302
REMARK  128  A    between atoms: _302  and  _303
REMARK  129  A    between atoms: _302  and  _305
REMARK  130  A    between atoms: _305  and  _306
REMARK  131  A    between atoms: _306  and  _307
REMARK  132  A    between atoms: _312  and  _314
REMARK  133  A    between atoms: _314  and  _315
REMARK  134  A    between atoms: _314  and  _317
REMARK  135  A    between atoms: _317  and  _318
REMARK  136  A    between atoms: _318  and  _319
REMARK  137  A    between atoms: _324  and  _326
REMARK  138  A    between atoms: _326  and  _327
REMARK  139  A    between atoms: _329  and  _331
REMARK  140  A    between atoms: _331  and  _332
REMARK  141  A    between atoms: _331  and  _334
REMARK  142  A    between atoms: _334  and  _335
REMARK  143  A    between atoms: _337  and  _339
REMARK  144  A    between atoms: _339  and  _340
REMARK  145  A    between atoms: _339  and  _342
REMARK  146  A    between atoms: _342  and  _343
REMARK  147  A    between atoms: _343  and  _344
REMARK  148  A    between atoms: _344  and  _345
REMARK  149  A    between atoms: _354  and  _356
REMARK  150  A    between atoms: _356  and  _357
REMARK  151  A    between atoms: _360  and  _362
REMARK  152  A    between atoms: _362  and  _363
REMARK  153  A    between atoms: _362  and  _365
REMARK  154  A    between atoms: _368  and  _370
REMARK  155  A    between atoms: _370  and  _371
REMARK  156  A    between atoms: _373  and  _375
REMARK  157  A    between atoms: _375  and  _376
REMARK  158  A    between atoms: _378  and  _380
REMARK  159  A    between atoms: _380  and  _381
REMARK  160  A    between atoms: _380  and  _383
REMARK  161  A    between atoms: _383  and  _384
REMARK  162  A    between atoms: _387  and  _389
REMARK  163  A    between atoms: _389  and  _390
REMARK  164  A    between atoms: _393  and  _395
REMARK  165  A    between atoms: _395  and  _396
REMARK  166  A    between atoms: _395  and  _398
REMARK  167  A    between atoms: _401  and  _403
REMARK  168  A    between atoms: _403  and  _404
REMARK  169  A    between atoms: _406  and  _408
REMARK  170  A    between atoms: _408  and  _409
REMARK  171  A    between atoms: _408  and  _411
REMARK  172  A    between atoms: _411  and  _412
REMARK  173  A    between atoms: _412  and  _413
REMARK  174  A    between atoms: _416  and  _418
REMARK  175  A    between atoms: _418  and  _419
REMARK  176  A    between atoms: _418  and  _421
REMARK  177  A    between atoms: _421  and  _422
REMARK  178  A    between atoms: _427  and  _428
REMARK  179  A    between atoms: _430  and  _432
REMARK  180  A    between atoms: _432  and  _433
REMARK  181  A    between atoms: _432  and  _435
REMARK  182  A    between atoms: _435  and  _436
REMARK  183  A    between atoms: _439  and  _441
REMARK  184  A    between atoms: _441  and  _442
REMARK  185  A    between atoms: _441  and  _444
REMARK  186  A    between atoms: _444  and  _445
REMARK  187  A    between atoms: _445  and  _446
REMARK  188  A    between atoms: _448  and  _450
REMARK  189  A    between atoms: _450  and  _451
REMARK  190  A    between atoms: _453  and  _455
REMARK  191  A    between atoms: _455  and  _456
REMARK  192  A    between atoms: _455  and  _458
REMARK  193  A    between atoms: _461  and  _463
REMARK  194  A    between atoms: _463  and  _464
REMARK  195  A    between atoms: _466  and  _468
REMARK  196  A    between atoms: _468  and  _469
REMARK  197  A    between atoms: _468  and  _471
REMARK  198  A    between atoms: _471  and  _472
REMARK  199  A    between atoms: _478  and  _480
REMARK  200  A    between atoms: _480  and  _481
REMARK  201  A    between atoms: _480  and  _483
REMARK  202  A    between atoms: _483  and  _484
REMARK  203  A    between atoms: _487  and  _489
REMARK  204  A    between atoms: _489  and  _490
REMARK  205  A    between atoms: _489  and  _492
REMARK  206  A    between atoms: _494  and  _496
REMARK  207  A    between atoms: _496  and  _497
REMARK  208  A    between atoms: _496  and  _499
REMARK  209  A    between atoms: _502  and  _504
REMARK  210  A    between atoms: _504  and  _505
REMARK  211  A    between atoms: _504  and  _507
REMARK  212  A    between atoms: _507  and  _508
REMARK  213  A    between atoms: _511  and  _513
REMARK  214  A    between atoms: _513  and  _514
REMARK  215  A    between atoms: _513  and  _516
REMARK  216  A    between atoms: _516  and  _517
REMARK  217  A    between atoms: _517  and  _518
REMARK  218  A    between atoms: _518  and  _519
REMARK                            x       y       z     vdW  Elec       q    Type
REMARK                         _______ _______ _______ _____ _____    ______ ____
ROOT
ATOM      1  CA  VAL A   3       2.033  10.962  82.725  0.00  0.00    +0.149 C 
ENDROOT
BRANCH   1   4
ATOM      2  C   PRO A   2       2.760   8.700  82.203  0.00  0.00    +0.241 C 
ATOM      3  O   PRO A   2       2.235   8.223  83.214  0.00  0.00    -0.273 OA
ATOM      4  N   VAL A   3       2.701   9.987  81.885  0.00  0.00    -0.297 N 
ATOM      5  H   VAL A   3       3.149  10.307  81.003  0.00  0.00    +0.150 HD
BRANCH   2  12
ATOM      6  C   MET A   1       5.174   7.151  82.910  0.00  0.00    +0.242 C 
ATOM      7  O   MET A   1       5.535   8.318  83.041  0.00  0.00    -0.273 OA
ATOM      8  N   PRO A   2       4.269   6.776  81.990  0.00  0.00    -0.272 N 
ATOM      9  CD  PRO A   2       3.884   5.421  81.561  0.00  0.00    +0.094 C 
ATOM     10  CG  PRO A   2       3.250   5.668  80.195  0.00  0.00    +0.024 C 
ATOM     11  CB  PRO A   2       2.588   7.016  80.359  0.00  0.00    +0.031 C 
ATOM     12  CA  PRO A   2       3.547   7.815  81.245  0.00  0.00    +0.152 C 
BRANCH   6  13
ATOM     13  CA  MET A   1       5.748   6.068  83.812  0.00  0.00    +0.146 C 
BRANCH  13  14
ATOM     14  N   MET A   1       7.159   5.822  83.514  0.00  0.00    -0.238 NA
ATOM     15  H   MET A   1       7.862   6.512  83.847  0.00  0.00    +0.142 HD
ENDBRANCH  13  14
BRANCH  13  16
ATOM     16  CB  MET A   1       5.593   6.524  85.266  0.00  0.00    +0.038 C 
BRANCH  16  17
ATOM     17  CG  MET A   1       6.028   5.479  86.270  0.00  0.00    +0.060 C 
BRANCH  17  18
ATOM     18  SD  MET A   1       5.860   5.998  87.991  0.00  0.00    -0.139 S 
ATOM     19  CE  MET A   1       7.221   7.154  88.120  0.00  0.00    +0.069 C 
ENDBRANCH  17  18
ENDBRANCH  16  17
ENDBRANCH  13  16
ENDBRANCH   6  13
ENDBRANCH   2  12
ENDBRANCH   1   4
BRANCH   1  20
ATOM     20  C   VAL A   3       0.588  11.167  82.282  0.00  0.00    +0.241 C 
ATOM     21  N   GLY A   4      -0.330  11.160  83.245  0.00  0.00    -0.295 N 
ATOM     22  H   GLY A   4      -0.040  10.934  84.218  0.00  0.00    +0.150 HD
ATOM     23  O   VAL A   3       0.312  11.322  81.088  0.00  0.00    -0.273 OA
BRANCH  21  24
ATOM     24  CA  GLY A   4      -1.728  11.459  82.976  0.00  0.00    +0.176 C 
BRANCH  24  25
ATOM     25  C   GLY A   4      -2.333  12.359  84.041  0.00  0.00    +0.243 C 
ATOM     26  O   GLY A   4      -3.093  11.892  84.894  0.00  0.00    -0.273 OA
ATOM     27  N   THR A   5      -2.008  13.649  83.994  0.00  0.00    -0.295 N 
ATOM     28  H   THR A   5      -1.443  14.003  83.196  0.00  0.00    +0.150 HD
BRANCH  27  29
ATOM     29  CA  THR A   5      -2.431  14.584  85.047  0.00  0.00    +0.176 C 
BRANCH  29  30
ATOM     30  C   THR A   5      -3.950  14.749  85.195  0.00  0.00    +0.243 C 
ATOM     31  O   THR A   5      -4.448  14.924  86.303  0.00  0.00    -0.273 OA
ATOM     32  N   ALA A   6      -4.683  14.732  84.090  0.00  0.00    -0.298 N 
ATOM     33  H   ALA A   6      -4.223  14.582  83.170  0.00  0.00    +0.150 HD
BRANCH  32  34
ATOM     34  CA  ALA A   6      -6.132  14.922  84.152  0.00  0.00    +0.137 C 
ATOM     35  CB  ALA A   6      -6.597  15.838  83.015  0.00  0.00    +0.030 C 
BRANCH  34  36
ATOM     36  C   ALA A   6      -6.914  13.606  84.128  0.00  0.00    +0.227 C 
ATOM     37  O   ALA A   6      -7.990  13.545  83.546  0.00  0.00    -0.286 OA
ENDBRANCH  34  36
ENDBRANCH  32  34
ENDBRANCH  29  30
BRANCH  29  38
ATOM     38  CB  THR A   5      -1.823  15.994  84.856  0.00  0.00    +0.137 C 
ATOM     39  CG2 THR A   5      -0.302  15.930  84.832  0.00  0.00    +0.034 C 
BRANCH  38  40
ATOM     40  OG1 THR A   5      -2.305  16.560  83.631  0.00  0.00    -0.382 OA
ATOM     41  HG1 THR A   5      -2.039  15.980  82.874  0.00  0.00    +0.210 HD
ENDBRANCH  38  40
ENDBRANCH  29  38
ENDBRANCH  27  29
ENDBRANCH  24  25
ENDBRANCH  21  24
ENDBRANCH   1  20
BRANCH   1  42
ATOM     42  CB  VAL A   3       2.802  12.301  82.691  0.00  0.00    +0.027 C 
ATOM     43  CG2 VAL A   3       2.029  13.406  83.410  0.00  0.00    +0.002 C 
ATOM     44  CG1 VAL A   3       4.210  12.119  83.293  0.00  0.00    +0.002 C 
ENDBRANCH   1  42
TORSDOF 17
REMARK  Name = ../refined-set-2016/4leq/4leq_pocket.pdb
REMARK  218 active torsions:
REMARK  status: ('A' for Active; 'I' for Inactive)
REMARK    1  A    between atoms: _1  and  _3
REMARK    2  A    between atoms: _3  and  _4
REMARK    3  A    between atoms: _3  and  _6
REMARK    4  A    between atoms: _6  and  _7
REMARK    5  A    between atoms: _7  and  _8
REMARK    6  A    between atoms: _11  and  _12
REMARK    7  A    between atoms: _17  and  _19
REMARK    8  A    between atoms: _19  and  _20
REMARK    9  A    between atoms: _19  and  _22
REMARK   10  A    between atoms: _25  and  _27
REMARK   11  A    between atoms: _27  and  _28
REMARK   12  A    between atoms: _30  and  _32
REMARK   13  A    between atoms: _32  and  _33
REMARK   14  A    between atoms: _32  and  _35
REMARK   15  A    between atoms: _35  and  _36
REMARK   16  A    between atoms: _39  and  _41
REMARK   17  A    between atoms: _41  and  _42
REMARK   18  A    between atoms: _45  and  _47
REMARK   19  A    between atoms: _47  and  _48
REMARK   20  A    between atoms: _47  and  _50
REMARK   21  A    between atoms: _50  and  _51
REMARK   22  A    between atoms: _54  and  _56
REMARK   23  A    between atoms: _56  and  _57
REMARK   24  A    between atoms: _59  and  _61
REMARK   25  A    between atoms: _61  and  _62
REMARK   26  A    between atoms: _61  and  _64
REMARK   27  A    between atoms: _64  and  _65
REMARK   28  A    between atoms: _70  and  _72
REMARK   29  A    between atoms: _72  and  _73
REMARK   30  A    between atoms: _72  and  _75
REMARK   31  A    between atoms: _75  and  _76
REMARK   32  A    between atoms: _79  and  _81
REMARK   33  A    between atoms: _81  and  _82
REMARK   34  A    between atoms: _81  and  _84
REMARK   35  A    between atoms: _84  and  _85
REMARK   36  A    between atoms: _90  and  _91
REMARK   37  A    between atoms: _93  and  _95
REMARK   38  A    between atoms: _95  and  _96
REMARK   39  A    between atoms: _95  and  _98
REMARK   40  A    between atoms: _98  and  _99
REMARK   41  A    between atoms: _104  and  _106
REMARK   42  A    between atoms: _106  and  _107
REMARK   43  A    between atoms: _106  and  _109
REMARK   44  A    between atoms: _109  and  _110
REMARK   45  A    between atoms: _113  and  _115
REMARK   46  A    between atoms: _115  and  _116
REMARK   47  A    between atoms: _115  and  _118
REMARK   48  A    between atoms: _118  and  _119
REMARK   49  A    between atoms: _122  and  _124
REMARK   50  A    between atoms: _124  and  _125
REMARK   51  A    between atoms: _124  and  _127
REMARK   52  A    between atoms: _127  and  _128
REMARK   53  A    between atoms: _131  and  _133
REMARK   54  A    between atoms: _133  and  _134
REMARK   55  A    between atoms: _133  and  _136
REMARK   56  A    between atoms: _136  and  _137
REMARK   57  A    between atoms: _139  and  _141
REMARK   58  A    between atoms: _141  and  _142
REMARK   59  A    between atoms: _144  and  _146
REMARK   60  A    between atoms: _146  and  _147
REMARK   61  A    between atoms: _149  and  _151
REMARK   62  A    between atoms: _151  and  _152
REMARK   63  A    between atoms: _151  and  _154
REMARK   64  A    between atoms: _154  and  _155
REMARK   65  A    between atoms: _160  and  _161
REMARK   66  A    between atoms: _163  and  _165
REMARK   67  A    between atoms: _165  and  _166
REMARK   68  A    between atoms: _165  and  _168
REMARK   69  A    between atoms: _168  and  _169
REMARK   70  A    between atoms: _169  and  _170
REMARK   71  A    between atoms: _175  and  _177
REMARK   72  A    between atoms: _177  and  _178
REMARK   73  A    between atoms: _177  and  _180
REMARK   74  A    between atoms: _183  and  _185
REMARK   75  A    between atoms: _185  and  _186
REMARK   76  A    between atoms: _185  and  _188
REMARK   77  A    between atoms: _188  and  _189
REMARK   78  A    between atoms: _189  and  _190
REMARK   79  A    between atoms: _192  and  _194
REMARK   80  A    between atoms: _194  and  _195
REMARK   81  A    between atoms: _194  and  _197
REMARK   82  A    between atoms: _197  and  _198
REMARK   83  A    between atoms: _200  and  _202
REMARK   84  A    between atoms: _202  and  _203
REMARK   85  A    between atoms: _202  and  _205
REMARK   86  A    between atoms: _205  and  _206
REMARK   87  A    between atoms: _209  and  _211
REMARK   88  A    between atoms: _211  and  _212
REMARK   89  A    between atoms: _211  and  _214
REMARK   90  A    between atoms: _214  and  _215
REMARK   91  A    between atoms: _215  and  _216
REMARK   92  A    between atoms: _221  and  _223
REMARK   93  A    between atoms: _223  and  _224
REMARK   94  A    between atoms: _223  and  _226
REMARK   95  A    between atoms: _226  and  _227
REMARK   96  A    between atoms: _227  and  _228
REMARK   97  A    between atoms: _230  and  _232
REMARK   98  A    between atoms: _232  and  _233
REMARK   99  A    between atoms: _236  and  _238
REMARK  100  A    between atoms: _238  and  _239
REMARK  101  A    between atoms: _238  and  _241
REMARK  102  A    between atoms: _241  and  _242
REMARK  103  A    between atoms: _248  and  _250
REMARK  104  A    between atoms: _250  and  _251
REMARK  105  A    between atoms: _250  and  _253
REMARK  106  A    between atoms: _253  and  _254
REMARK  107  A    between atoms: _257  and  _259
REMARK  108  A    between atoms: _259  and  _260
REMARK  109  A    between atoms: _259  and  _262
REMARK  110  A    between atoms: _262  and  _263
REMARK  111  A    between atoms: _263  and  _264
REMARK  112  A    between atoms: _267  and  _269
REMARK  113  A    between atoms: _269  and  _270
REMARK  114  A    between atoms: _269  and  _272
REMARK  115  A    between atoms: _274  and  _276
REMARK  116  A    between atoms: _276  and  _277
REMARK  117  A    between atoms: _276  and  _279
REMARK  118  A    between atoms: _279  and  _280
REMARK  119  A    between atoms: _283  and  _285
REMARK  120  A    between atoms: _285  and  _286
REMARK  121  A    between atoms: _285  and  _288
REMARK  122  A    between atoms: _288  and  _289
REMARK  123  A    between atoms: _291  and  _293
REMARK  124  A    between atoms: _293  and  _294
REMARK  125  A    between atoms: _293  and  _296
REMARK  126  A    between atoms: _296  and  _297
REMARK  127  A    between atoms: _300  and  _302
REMARK  128  A    between atoms: _302  and  _303
REMARK  129  A    between atoms: _302  and  _305
REMARK  130  A    between atoms: _305  and  _306
REMARK  131  A    between atoms: _306  and  _307
REMARK  132  A    between atoms: _312  and  _314
REMARK  133  A    between atoms: _314  and  _315
REMARK  134  A    between atoms: _314  and  _317
REMARK  135  A    between atoms: _317  and  _318
REMARK  136  A    between atoms: _318  and  _319
REMARK  137  A    between atoms: _324  and  _326
REMARK  138  A    between atoms: _326  and  _327
REMARK  139  A    between atoms: _329  and  _331
REMARK  140  A    between atoms: _331  and  _332
REMARK  141  A    between atoms: _331  and  _334
REMARK  142  A    between atoms: _334  and  _335
REMARK  143  A    between atoms: _337  and  _339
REMARK  144  A    between atoms: _339  and  _340
REMARK  145  A    between atoms: _339  and  _342
REMARK  146  A    between atoms: _342  and  _343
REMARK  147  A    between atoms: _343  and  _344
REMARK  148  A    between atoms: _344  and  _345
REMARK  149  A    between atoms: _354  and  _356
REMARK  150  A    between atoms: _356  and  _357
REMARK  151  A    between atoms: _360  and  _362
REMARK  152  A    between atoms: _362  and  _363
REMARK  153  A    between atoms: _362  and  _365
REMARK  154  A    between atoms: _368  and  _370
REMARK  155  A    between atoms: _370  and  _371
REMARK  156  A    between atoms: _373  and  _375
REMARK  157  A    between atoms: _375  and  _376
REMARK  158  A    between atoms: _378  and  _380
REMARK  159  A    between atoms: _380  and  _381
REMARK  160  A    between atoms: _380  and  _383
REMARK  161  A    between atoms: _383  and  _384
REMARK  162  A    between atoms: _387  and  _389
REMARK  163  A    between atoms: _389  and  _390
REMARK  164  A    between atoms: _393  and  _395
REMARK  165  A    between atoms: _395  and  _396
REMARK  166  A    between atoms: _395  and  _398
REMARK  167  A    between atoms: _401  and  _403
REMARK  168  A    between atoms: _403  and  _404
REMARK  169  A    between atoms: _406  and  _408
REMARK  170  A    between atoms: _408  and  _409
REMARK  171  A    between atoms: _408  and  _411
REMARK  172  A    between atoms: _411  and  _412
REMARK  173  A    between atoms: _412  and  _413
REMARK  174  A    between atoms: _416  and  _418
REMARK  175  A    between atoms: _418  and  _419
REMARK  176  A    between atoms: _418  and  _421
REMARK  177  A    between atoms: _421  and  _422
REMARK  178  A    between atoms: _427  and  _428
REMARK  179  A    between atoms: _430  and  _432
REMARK  180  A    between atoms: _432  and  _433
REMARK  181  A    between atoms: _432  and  _435
REMARK  182  A    between atoms: _435  and  _436
REMARK  183  A    between atoms: _439  and  _441
REMARK  184  A    between atoms: _441  and  _442
REMARK  185  A    between atoms: _441  and  _444
REMARK  186  A    between atoms: _444  and  _445
REMARK  187  A    between atoms: _445  and  _446
REMARK  188  A    between atoms: _448  and  _450
REMARK  189  A    between atoms: _450  and  _451
REMARK  190  A    between atoms: _453  and  _455
REMARK  191  A    between atoms: _455  and  _456
REMARK  192  A    between atoms: _455  and  _458
REMARK  193  A    between atoms: _461  and  _463
REMARK  194  A    between atoms: _463  and  _464
REMARK  195  A    between atoms: _466  and  _468
REMARK  196  A    between atoms: _468  and  _469
REMARK  197  A    between atoms: _468  and  _471
REMARK  198  A    between atoms: _471  and  _472
REMARK  199  A    between atoms: _478  and  _480
REMARK  200  A    between atoms: _480  and  _481
REMARK  201  A    between atoms: _480  and  _483
REMARK  202  A    between atoms: _483  and  _484
REMARK  203  A    between atoms: _487  and  _489
REMARK  204  A    between atoms: _489  and  _490
REMARK  205  A    between atoms: _489  and  _492
REMARK  206  A    between atoms: _494  and  _496
REMARK  207  A    between atoms: _496  and  _497
REMARK  208  A    between atoms: _496  and  _499
REMARK  209  A    between atoms: _502  and  _504
REMARK  210  A    between atoms: _504  and  _505
REMARK  211  A    between atoms: _504  and  _507
REMARK  212  A    between atoms: _507  and  _508
REMARK  213  A    between atoms: _511  and  _513
REMARK  214  A    between atoms: _513  and  _514
REMARK  215  A    between atoms: _513  and  _516
REMARK  216  A    between atoms: _516  and  _517
REMARK  217  A    between atoms: _517  and  _518
REMARK  218  A    between atoms: _518  and  _519
REMARK                            x       y       z     vdW  Elec       q    Type
REMARK                         _______ _______ _______ _____ _____    ______ ____
ROOT
ATOM      1  CA  THR A   4      -2.774  15.303  93.333  0.00  0.00    +0.176 C 
ENDROOT
BRANCH   1   3
ATOM      2  C   ASN A   3      -2.232  14.763  90.989  0.00  0.00    +0.241 C 
ATOM      3  N   THR A   4      -1.921  14.765  92.279  0.00  0.00    -0.295 N 
ATOM      4  H   THR A   4      -1.007  14.355  92.558  0.00  0.00    +0.150 HD
ATOM      5  O   ASN A   3      -3.317  15.128  90.547  0.00  0.00    -0.273 OA
BRANCH   2   6
ATOM      6  CA  ASN A   3      -1.144  14.241  90.064  0.00  0.00    +0.158 C 
BRANCH   6   9
ATOM      7  C   GLY A   2      -0.831  12.054  89.087  0.00  0.00    +0.243 C 
ATOM      8  O   GLY A   2       0.243  11.943  89.672  0.00  0.00    -0.273 OA
ATOM      9  N   ASN A   3      -1.602  13.123  89.246  0.00  0.00    -0.297 N 
ATOM     10  H   ASN A   3      -2.534  13.164  88.787  0.00  0.00    +0.150 HD
BRANCH   7  11
ATOM     11  CA  GLY A   2      -1.324  10.957  88.152  0.00  0.00    +0.176 C 
BRANCH  11  13
ATOM     12  C   LEU A   1       0.281   9.633  86.868  0.00  0.00    +0.238 C 
ATOM     13  N   GLY A   2      -0.308   9.926  88.025  0.00  0.00    -0.296 N 
ATOM     14  H   GLY A   2      -0.029   9.394  88.874  0.00  0.00    +0.150 HD
ATOM     15  O   LEU A   1      -0.094  10.083  85.776  0.00  0.00    -0.274 OA
BRANCH  12  16
ATOM     16  CA  LEU A   1       1.492   8.723  86.950  0.00  0.00    +0.145 C 
BRANCH  16  17
ATOM     17  N   LEU A   1       1.439   7.685  85.934  0.00  0.00    -0.238 NA
ATOM     18  H   LEU A   1       1.584   7.944  84.937  0.00  0.00    +0.142 HD
ENDBRANCH  16  17
BRANCH  16  19
ATOM     19  CB  LEU A   1       2.773   9.551  86.797  0.00  0.00    +0.026 C 
BRANCH  19  20
ATOM     20  CG  LEU A   1       3.007  10.711  87.779  0.00  0.00    +0.002 C 
ATOM     21  CD2 LEU A   1       4.494  10.955  87.987  0.00  0.00    +0.000 C 
ATOM     22  CD1 LEU A   1       2.367  12.014  87.300  0.00  0.00    +0.000 C 
ENDBRANCH  19  20
ENDBRANCH  16  19
ENDBRANCH  12  16
ENDBRANCH  11  13
ENDBRANCH   7  11
ENDBRANCH   6   9
BRANCH   6  23
ATOM     23  CB  ASN A   3      -0.597  15.364  89.177  0.00  0.00    +0.114 C 
BRANCH  23  24
ATOM     24  CG  ASN A   3       0.262  16.375  89.957  0.00  0.00    +0.222 C 
ATOM     25  OD1 ASN A   3      -0.047  16.751  91.090  0.00  0.00    -0.275 OA
ATOM     26  ND2 ASN A   3       1.345  16.813  89.344  0.00  0.00    -0.329 N 
ATOM     27 HD21 ASN A   3       1.969  17.497  89.817  0.00  0.00    +0.145 HD
ATOM     28 HD22 ASN A   3       1.574  16.474  88.388  0.00  0.00    +0.145 HD
ENDBRANCH  23  24
ENDBRANCH   6  23
ENDBRANCH   2   6
ENDBRANCH   1   3
BRANCH   1  29
ATOM     29  C   THR A   4      -3.293  16.698  93.004  0.00  0.00    +0.243 C 
ATOM     30  O   THR A   4      -4.478  16.990  93.181  0.00  0.00    -0.273 OA
ATOM     31  N   TYR A   5      -2.409  17.572  92.539  0.00  0.00    -0.297 N 
ATOM     32  H   TYR A   5      -1.435  17.267  92.340  0.00  0.00    +0.150 HD
BRANCH  31  33
ATOM     33  CA  TYR A   5      -2.800  18.962  92.305  0.00  0.00    +0.153 C 
BRANCH  33  34
ATOM     34  C   TYR A   5      -3.890  19.087  91.242  0.00  0.00    +0.241 C 
ATOM     35  O   TYR A   5      -4.929  19.726  91.462  0.00  0.00    -0.273 OA
ATOM     36  N   HIS A   6      -3.661  18.480  90.085  0.00  0.00    -0.298 N 
ATOM     37  H   HIS A   6      -2.811  17.893  89.963  0.00  0.00    +0.150 HD
BRANCH  36  38
ATOM     38  CA  HIS A   6      -4.600  18.638  88.991  0.00  0.00    +0.143 C 
BRANCH  38  39
ATOM     39  C   HIS A   6      -5.943  17.998  89.304  0.00  0.00    +0.227 C 
ATOM     40  O   HIS A   6      -6.992  18.580  89.026  0.00  0.00    -0.286 OA
ENDBRANCH  38  39
BRANCH  38  41
ATOM     41  CB  HIS A   6      -3.990  18.072  87.716  0.00  0.00    +0.075 C 
BRANCH  41  42
ATOM     42  CG  HIS A   6      -2.685  18.714  87.365  0.00  0.00    +0.082 A 
ATOM     43  ND1 HIS A   6      -1.503  18.376  87.989  0.00  0.00    -0.227 NA
ATOM     44  CE1 HIS A   6      -0.523  19.114  87.498  0.00  0.00    +0.199 A 
ATOM     45  NE2 HIS A   6      -1.031  19.930  86.592  0.00  0.00    -0.221 NA
ATOM     46  CD2 HIS A   6      -2.382  19.705  86.495  0.00  0.00    +0.115 A 
ENDBRANCH  41  42
ENDBRANCH  38  41
ENDBRANCH  36  38
ENDBRANCH  33  34
BRANCH  33  47
ATOM     47  CB  TYR A   5      -1.586  19.813  91.912  0.00  0.00    +0.055 C 
BRANCH  47  48
ATOM     48  CG  TYR A   5      -1.978  21.215  91.516  0.00  0.00    -0.020 A 
ATOM     49  CD2 TYR A   5      -2.188  22.191  92.479  0.00  0.00    -0.001 A 
ATOM     50  CE2 TYR A   5      -2.560  23.470  92.127  0.00  0.00    +0.036 A 
ATOM     51  CZ  TYR A   5      -2.739  23.785  90.799  0.00  0.00    +0.134 A 
ATOM     52  CE1 TYR A   5      -2.545  22.832  89.819  0.00  0.00    +0.036 A 
ATOM     53  CD1 TYR A   5      -2.170  21.554  90.178  0.00  0.00    -0.001 A 
BRANCH  51  54
ATOM     54  OH  TYR A   5      -3.118  25.059  90.452  0.00  0.00    -0.506 OA
ATOM     55  HH  TYR A   5      -3.985  25.026  89.974  0.00  0.00    +0.292 HD
ENDBRANCH  51  54
ENDBRANCH  47  48
ENDBRANCH  33  47
ENDBRANCH  31  33
ENDBRANCH   1  29
BRANCH   1  56
ATOM     56  CB  THR A   4      -1.967  15.383  94.641  0.00  0.00    +0.137 C 
ATOM     57  CG2 THR A   4      -2.749  16.082  95.746  0.00  0.00    +0.034 C 
BRANCH  56  58
ATOM     58  OG1 THR A   4      -1.617  14.061  95.059  0.00  0.00    -0.382 OA
ATOM     59  HG1 THR A   4      -1.070  13.628  94.356  0.00  0.00    +0.210 HD
ENDBRANCH  56  58
ENDBRANCH   1  56
TORSDOF 23
REMARK  Name = ../refined-set-2016/4leq/4leq_pocket.pdb
REMARK  218 active torsions:
REMARK  status: ('A' for Active; 'I' for Inactive)
REMARK    1  A    between atoms: _1  and  _3
REMARK    2  A    between atoms: _3  and  _4
REMARK    3  A    between atoms: _3  and  _6
REMARK    4  A    between atoms: _6  and  _7
REMARK    5  A    between atoms: _7  and  _8
REMARK    6  A    between atoms: _11  and  _12
REMARK    7  A    between atoms: _17  and  _19
REMARK    8  A    between atoms: _19  and  _20
REMARK    9  A    between atoms: _19  and  _22
REMARK   10  A    between atoms: _25  and  _27
REMARK   11  A    between atoms: _27  and  _28
REMARK   12  A    between atoms: _30  and  _32
REMARK   13  A    between atoms: _32  and  _33
REMARK   14  A    between atoms: _32  and  _35
REMARK   15  A    between atoms: _35  and  _36
REMARK   16  A    between atoms: _39  and  _41
REMARK   17  A    between atoms: _41  and  _42
REMARK   18  A    between atoms: _45  and  _47
REMARK   19  A    between atoms: _47  and  _48
REMARK   20  A    between atoms: _47  and  _50
REMARK   21  A    between atoms: _50  and  _51
REMARK   22  A    between atoms: _54  and  _56
REMARK   23  A    between atoms: _56  and  _57
REMARK   24  A    between atoms: _59  and  _61
REMARK   25  A    between atoms: _61  and  _62
REMARK   26  A    between atoms: _61  and  _64
REMARK   27  A    between atoms: _64  and  _65
REMARK   28  A    between atoms: _70  and  _72
REMARK   29  A    between atoms: _72  and  _73
REMARK   30  A    between atoms: _72  and  _75
REMARK   31  A    between atoms: _75  and  _76
REMARK   32  A    between atoms: _79  and  _81
REMARK   33  A    between atoms: _81  and  _82
REMARK   34  A    between atoms: _81  and  _84
REMARK   35  A    between atoms: _84  and  _85
REMARK   36  A    between atoms: _90  and  _91
REMARK   37  A    between atoms: _93  and  _95
REMARK   38  A    between atoms: _95  and  _96
REMARK   39  A    between atoms: _95  and  _98
REMARK   40  A    between atoms: _98  and  _99
REMARK   41  A    between atoms: _104  and  _106
REMARK   42  A    between atoms: _106  and  _107
REMARK   43  A    between atoms: _106  and  _109
REMARK   44  A    between atoms: _109  and  _110
REMARK   45  A    between atoms: _113  and  _115
REMARK   46  A    between atoms: _115  and  _116
REMARK   47  A    between atoms: _115  and  _118
REMARK   48  A    between atoms: _118  and  _119
REMARK   49  A    between atoms: _122  and  _124
REMARK   50  A    between atoms: _124  and  _125
REMARK   51  A    between atoms: _124  and  _127
REMARK   52  A    between atoms: _127  and  _128
REMARK   53  A    between atoms: _131  and  _133
REMARK   54  A    between atoms: _133  and  _134
REMARK   55  A    between atoms: _133  and  _136
REMARK   56  A    between atoms: _136  and  _137
REMARK   57  A    between atoms: _139  and  _141
REMARK   58  A    between atoms: _141  and  _142
REMARK   59  A    between atoms: _144  and  _146
REMARK   60  A    between atoms: _146  and  _147
REMARK   61  A    between atoms: _149  and  _151
REMARK   62  A    between atoms: _151  and  _152
REMARK   63  A    between atoms: _151  and  _154
REMARK   64  A    between atoms: _154  and  _155
REMARK   65  A    between atoms: _160  and  _161
REMARK   66  A    between atoms: _163  and  _165
REMARK   67  A    between atoms: _165  and  _166
REMARK   68  A    between atoms: _165  and  _168
REMARK   69  A    between atoms: _168  and  _169
REMARK   70  A    between atoms: _169  and  _170
REMARK   71  A    between atoms: _175  and  _177
REMARK   72  A    between atoms: _177  and  _178
REMARK   73  A    between atoms: _177  and  _180
REMARK   74  A    between atoms: _183  and  _185
REMARK   75  A    between atoms: _185  and  _186
REMARK   76  A    between atoms: _185  and  _188
REMARK   77  A    between atoms: _188  and  _189
REMARK   78  A    between atoms: _189  and  _190
REMARK   79  A    between atoms: _192  and  _194
REMARK   80  A    between atoms: _194  and  _195
REMARK   81  A    between atoms: _194  and  _197
REMARK   82  A    between atoms: _197  and  _198
REMARK   83  A    between atoms: _200  and  _202
REMARK   84  A    between atoms: _202  and  _203
REMARK   85  A    between atoms: _202  and  _205
REMARK   86  A    between atoms: _205  and  _206
REMARK   87  A    between atoms: _209  and  _211
REMARK   88  A    between atoms: _211  and  _212
REMARK   89  A    between atoms: _211  and  _214
REMARK   90  A    between atoms: _214  and  _215
REMARK   91  A    between atoms: _215  and  _216
REMARK   92  A    between atoms: _221  and  _223
REMARK   93  A    between atoms: _223  and  _224
REMARK   94  A    between atoms: _223  and  _226
REMARK   95  A    between atoms: _226  and  _227
REMARK   96  A    between atoms: _227  and  _228
REMARK   97  A    between atoms: _230  and  _232
REMARK   98  A    between atoms: _232  and  _233
REMARK   99  A    between atoms: _236  and  _238
REMARK  100  A    between atoms: _238  and  _239
REMARK  101  A    between atoms: _238  and  _241
REMARK  102  A    between atoms: _241  and  _242
REMARK  103  A    between atoms: _248  and  _250
REMARK  104  A    between atoms: _250  and  _251
REMARK  105  A    between atoms: _250  and  _253
REMARK  106  A    between atoms: _253  and  _254
REMARK  107  A    between atoms: _257  and  _259
REMARK  108  A    between atoms: _259  and  _260
REMARK  109  A    between atoms: _259  and  _262
REMARK  110  A    between atoms: _262  and  _263
REMARK  111  A    between atoms: _263  and  _264
REMARK  112  A    between atoms: _267  and  _269
REMARK  113  A    between atoms: _269  and  _270
REMARK  114  A    between atoms: _269  and  _272
REMARK  115  A    between atoms: _274  and  _276
REMARK  116  A    between atoms: _276  and  _277
REMARK  117  A    between atoms: _276  and  _279
REMARK  118  A    between atoms: _279  and  _280
REMARK  119  A    between atoms: _283  and  _285
REMARK  120  A    between atoms: _285  and  _286
REMARK  121  A    between atoms: _285  and  _288
REMARK  122  A    between atoms: _288  and  _289
REMARK  123  A    between atoms: _291  and  _293
REMARK  124  A    between atoms: _293  and  _294
REMARK  125  A    between atoms: _293  and  _296
REMARK  126  A    between atoms: _296  and  _297
REMARK  127  A    between atoms: _300  and  _302
REMARK  128  A    between atoms: _302  and  _303
REMARK  129  A    between atoms: _302  and  _305
REMARK  130  A    between atoms: _305  and  _306
REMARK  131  A    between atoms: _306  and  _307
REMARK  132  A    between atoms: _312  and  _314
REMARK  133  A    between atoms: _314  and  _315
REMARK  134  A    between atoms: _314  and  _317
REMARK  135  A    between atoms: _317  and  _318
REMARK  136  A    between atoms: _318  and  _319
REMARK  137  A    between atoms: _324  and  _326
REMARK  138  A    between atoms: _326  and  _327
REMARK  139  A    between atoms: _329  and  _331
REMARK  140  A    between atoms: _331  and  _332
REMARK  141  A    between atoms: _331  and  _334
REMARK  142  A    between atoms: _334  and  _335
REMARK  143  A    between atoms: _337  and  _339
REMARK  144  A    between atoms: _339  and  _340
REMARK  145  A    between atoms: _339  and  _342
REMARK  146  A    between atoms: _342  and  _343
REMARK  147  A    between atoms: _343  and  _344
REMARK  148  A    between atoms: _344  and  _345
REMARK  149  A    between atoms: _354  and  _356
REMARK  150  A    between atoms: _356  and  _357
REMARK  151  A    between atoms: _360  and  _362
REMARK  152  A    between atoms: _362  and  _363
REMARK  153  A    between atoms: _362  and  _365
REMARK  154  A    between atoms: _368  and  _370
REMARK  155  A    between atoms: _370  and  _371
REMARK  156  A    between atoms: _373  and  _375
REMARK  157  A    between atoms: _375  and  _376
REMARK  158  A    between atoms: _378  and  _380
REMARK  159  A    between atoms: _380  and  _381
REMARK  160  A    between atoms: _380  and  _383
REMARK  161  A    between atoms: _383  and  _384
REMARK  162  A    between atoms: _387  and  _389
REMARK  163  A    between atoms: _389  and  _390
REMARK  164  A    between atoms: _393  and  _395
REMARK  165  A    between atoms: _395  and  _396
REMARK  166  A    between atoms: _395  and  _398
REMARK  167  A    between atoms: _401  and  _403
REMARK  168  A    between atoms: _403  and  _404
REMARK  169  A    between atoms: _406  and  _408
REMARK  170  A    between atoms: _408  and  _409
REMARK  171  A    between atoms: _408  and  _411
REMARK  172  A    between atoms: _411  and  _412
REMARK  173  A    between atoms: _412  and  _413
REMARK  174  A    between atoms: _416  and  _418
REMARK  175  A    between atoms: _418  and  _419
REMARK  176  A    between atoms: _418  and  _421
REMARK  177  A    between atoms: _421  and  _422
REMARK  178  A    between atoms: _427  and  _428
REMARK  179  A    between atoms: _430  and  _432
REMARK  180  A    between atoms: _432  and  _433
REMARK  181  A    between atoms: _432  and  _435
REMARK  182  A    between atoms: _435  and  _436
REMARK  183  A    between atoms: _439  and  _441
REMARK  184  A    between atoms: _441  and  _442
REMARK  185  A    between atoms: _441  and  _444
REMARK  186  A    between atoms: _444  and  _445
REMARK  187  A    between atoms: _445  and  _446
REMARK  188  A    between atoms: _448  and  _450
REMARK  189  A    between atoms: _450  and  _451
REMARK  190  A    between atoms: _453  and  _455
REMARK  191  A    between atoms: _455  and  _456
REMARK  192  A    between atoms: _455  and  _458
REMARK  193  A    between atoms: _461  and  _463
REMARK  194  A    between atoms: _463  and  _464
REMARK  195  A    between atoms: _466  and  _468
REMARK  196  A    between atoms: _468  and  _469
REMARK  197  A    between atoms: _468  and  _471
REMARK  198  A    between atoms: _471  and  _472
REMARK  199  A    between atoms: _478  and  _480
REMARK  200  A    between atoms: _480  and  _481
REMARK  201  A    between atoms: _480  and  _483
REMARK  202  A    between atoms: _483  and  _484
REMARK  203  A    between atoms: _487  and  _489
REMARK  204  A    between atoms: _489  and  _490
REMARK  205  A    between atoms: _489  and  _492
REMARK  206  A    between atoms: _494  and  _496
REMARK  207  A    between atoms: _496  and  _497
REMARK  208  A    between atoms: _496  and  _499
REMARK  209  A    between atoms: _502  and  _504
REMARK  210  A    between atoms: _504  and  _505
REMARK  211  A    between atoms: _504  and  _507
REMARK  212  A    between atoms: _507  and  _508
REMARK  213  A    between atoms: _511  and  _513
REMARK  214  A    between atoms: _513  and  _514
REMARK  215  A    between atoms: _513  and  _516
REMARK  216  A    between atoms: _516  and  _517
REMARK  217  A    between atoms: _517  and  _518
REMARK  218  A    between atoms: _518  and  _519
REMARK                            x       y       z     vdW  Elec       q    Type
REMARK                         _______ _______ _______ _____ _____    ______ ____
ROOT
ATOM      1  CA  TYR A   7       6.261  20.634  92.091  0.00  0.00    +0.153 C 
ENDROOT
BRANCH   1   4
ATOM      2  C   GLY A   6       5.818  20.402  94.462  0.00  0.00    +0.243 C 
ATOM      3  O   GLY A   6       6.508  21.392  94.713  0.00  0.00    -0.273 OA
ATOM      4  N   TYR A   7       5.690  19.920  93.232  0.00  0.00    -0.297 N 
ATOM      5  H   TYR A   7       5.179  19.027  93.079  0.00  0.00    +0.150 HD
BRANCH   2   6
ATOM      6  CA  GLY A   6       5.084  19.672  95.572  0.00  0.00    +0.176 C 
BRANCH   6   8
ATOM      7  C   GLY A   5       2.828  19.543  94.647  0.00  0.00    +0.243 C 
ATOM      8  N   GLY A   6       3.881  18.940  95.193  0.00  0.00    -0.295 N 
ATOM      9  H   GLY A   6       3.845  17.913  95.355  0.00  0.00    +0.150 HD
ATOM     10  O   GLY A   5       2.837  20.726  94.345  0.00  0.00    -0.273 OA
BRANCH   7  11
ATOM     11  CA  GLY A   5       1.598  18.688  94.368  0.00  0.00    +0.176 C 
BRANCH  11  14
ATOM     12  C   SER A   4       1.432  16.584  95.589  0.00  0.00    +0.243 C 
ATOM     13  O   SER A   4       0.698  17.073  96.451  0.00  0.00    -0.273 OA
ATOM     14  N   GLY A   5       1.837  17.262  94.513  0.00  0.00    -0.295 N 
ATOM     15  H   GLY A   5       2.338  16.755  93.756  0.00  0.00    +0.150 HD
BRANCH  12  16
ATOM     16  CA  SER A   4       1.929  15.149  95.744  0.00  0.00    +0.178 C 
BRANCH  16  18
ATOM     17  C   ASP A   3       1.879  13.884  93.650  0.00  0.00    +0.241 C 
ATOM     18  N   SER A   4       2.559  14.578  94.557  0.00  0.00    -0.295 N 
ATOM     19  H   SER A   4       3.580  14.720  94.416  0.00  0.00    +0.150 HD
ATOM     20  O   ASP A   3       0.646  13.865  93.601  0.00  0.00    -0.273 OA
BRANCH  17  21
ATOM     21  CA  ASP A   3       2.717  13.099  92.641  0.00  0.00    +0.160 C 
BRANCH  21  24
ATOM     22  C   THR A   2       1.544  11.020  92.847  0.00  0.00    +0.243 C 
ATOM     23  O   THR A   2       2.004  10.848  93.971  0.00  0.00    -0.273 OA
ATOM     24  N   ASP A   3       1.899  12.043  92.079  0.00  0.00    -0.296 N 
ATOM     25  H   ASP A   3       1.594  12.086  91.086  0.00  0.00    +0.150 HD
BRANCH  22  26
ATOM     26  CA  THR A   2       0.522  10.055  92.272  0.00  0.00    +0.176 C 
BRANCH  26  28
ATOM     27  C   LEU A   1       1.225   8.031  91.189  0.00  0.00    +0.238 C 
ATOM     28  N   THR A   2       0.974   8.672  92.325  0.00  0.00    -0.295 N 
ATOM     29  H   THR A   2       1.099   8.193  93.240  0.00  0.00    +0.150 HD
ATOM     30  O   LEU A   1       0.970   8.523  90.083  0.00  0.00    -0.274 OA
BRANCH  27  31
ATOM     31  CA  LEU A   1       1.811   6.636  91.290  0.00  0.00    +0.145 C 
BRANCH  31  32
ATOM     32  N   LEU A   1       1.053   5.804  90.368  0.00  0.00    -0.238 NA
ATOM     33  H   LEU A   1       1.282   5.840  89.354  0.00  0.00    +0.142 HD
ENDBRANCH  31  32
BRANCH  31  34
ATOM     34  CB  LEU A   1       3.298   6.653  90.901  0.00  0.00    +0.026 C 
BRANCH  34  35
ATOM     35  CG  LEU A   1       4.245   7.503  91.765  0.00  0.00    +0.002 C 
ATOM     36  CD2 LEU A   1       5.638   6.884  91.812  0.00  0.00    +0.000 C 
ATOM     37  CD1 LEU A   1       4.347   8.939  91.243  0.00  0.00    +0.000 C 
ENDBRANCH  34  35
ENDBRANCH  31  34
ENDBRANCH  27  31
ENDBRANCH  26  28
BRANCH  26  38
ATOM     38  CB  THR A   2      -0.812  10.257  93.014  0.00  0.00    +0.137 C 
ATOM     39  CG2 THR A   2      -1.955   9.673  92.206  0.00  0.00    +0.034 C 
BRANCH  38  40
ATOM     40  OG1 THR A   2      -0.748   9.630  94.305  0.00  0.00    -0.382 OA
ATOM     41  HG1 THR A   2      -0.014  10.036  94.832  0.00  0.00    +0.210 HD
ENDBRANCH  38  40
ENDBRANCH  26  38
ENDBRANCH  22  26
ENDBRANCH  21  24
BRANCH  21  42
ATOM     42  CB  ASP A   3       3.276  14.012  91.556  0.00  0.00    +0.143 C 
BRANCH  42  43
ATOM     43  CG  ASP A   3       4.469  14.813  92.040  0.00  0.00    +0.367 C 
ATOM     44  OD2 ASP A   3       4.937  14.567  93.179  0.00  0.00    -0.246 OA
ATOM     45  OD1 ASP A   3       4.943  15.681  91.281  0.00  0.00    -0.246 OA
ENDBRANCH  42  43
ENDBRANCH  21  42
ENDBRANCH  17  21
ENDBRANCH  16  18
BRANCH  16  46
ATOM     46  CB  SER A   4       2.941  15.124  96.878  0.00  0.00    +0.166 C 
BRANCH  46  47
ATOM     47  OG  SER A   4       4.081  15.877  96.505  0.00  0.00    -0.380 OA
ATOM     48  H   SER A   4       4.741  15.862  97.243  0.00  0.00    +0.211 HD
ENDBRANCH  46  47
ENDBRANCH  16  46
ENDBRANCH  12  16
ENDBRANCH  11  14
ENDBRANCH   7  11
ENDBRANCH   6   8
ENDBRANCH   2   6
ENDBRANCH   1   4
BRANCH   1  49
ATOM     49  C   TYR A   7       5.463  21.898  91.806  0.00  0.00    +0.241 C 
ATOM     50  N   GLN A   8       4.140  21.790  91.883  0.00  0.00    -0.297 N 
ATOM     51  H   GLN A   8       3.715  20.869  92.112  0.00  0.00    +0.150 HD
ATOM     52  O   TYR A   7       6.036  22.952  91.513  0.00  0.00    -0.273 OA
BRANCH  50  53
ATOM     53  CA  GLN A   8       3.272  22.943  91.652  0.00  0.00    +0.149 C 
BRANCH  53  54
ATOM     54  C   GLN A   8       3.443  24.036  92.714  0.00  0.00    +0.241 C 
ATOM     55  N   VAL A   9       3.880  23.651  93.914  0.00  0.00    -0.297 N 
ATOM     56  H   VAL A   9       3.962  22.635  94.121  0.00  0.00    +0.150 HD
ATOM     57  O   GLN A   8       3.204  25.215  92.437  0.00  0.00    -0.273 OA
BRANCH  55  58
ATOM     58  CA  VAL A   9       4.248  24.624  94.949  0.00  0.00    +0.149 C 
BRANCH  58  59
ATOM     59  C   VAL A   9       5.287  25.608  94.396  0.00  0.00    +0.241 C 
ATOM     60  O   VAL A   9       5.257  26.801  94.694  0.00  0.00    -0.273 OA
ATOM     61  N   MET A  10       6.183  25.094  93.557  0.00  0.00    -0.297 N 
ATOM     62  H   MET A  10       6.154  24.076  93.348  0.00  0.00    +0.150 HD
BRANCH  61  63
ATOM     63  CA  MET A  10       7.205  25.919  92.922  0.00  0.00    +0.149 C 
BRANCH  63  64
ATOM     64  C   MET A  10       6.715  26.552  91.621  0.00  0.00    +0.241 C 
ATOM     65  O   MET A  10       6.781  27.770  91.454  0.00  0.00    -0.273 OA
ATOM     66  N   SER A  11       6.234  25.724  90.698  0.00  0.00    -0.295 N 
ATOM     67  H   SER A  11       6.106  24.719  90.932  0.00  0.00    +0.150 HD
BRANCH  66  68
ATOM     68  CA  SER A  11       5.881  26.201  89.358  0.00  0.00    +0.178 C 
BRANCH  68  69
ATOM     69  C   SER A  11       4.735  27.208  89.332  0.00  0.00    +0.243 C 
ATOM     70  N   LEU A  12       3.820  27.098  90.285  0.00  0.00    -0.298 N 
ATOM     71  H   LEU A  12       3.923  26.360  91.011  0.00  0.00    +0.150 HD
ATOM     72  O   SER A  11       4.683  28.071  88.459  0.00  0.00    -0.273 OA
BRANCH  70  73
ATOM     73  CA  LEU A  12       2.674  27.992  90.332  0.00  0.00    +0.137 C 
BRANCH  73  74
ATOM     74  C   LEU A  12       2.753  28.881  91.565  0.00  0.00    +0.227 C 
ATOM     75  O   LEU A  12       1.728  29.319  92.087  0.00  0.00    -0.286 OA
ENDBRANCH  73  74
BRANCH  73  76
ATOM     76  CB  LEU A  12       1.372  27.184  90.337  0.00  0.00    +0.028 C 
BRANCH  76  77
ATOM     77  CG  LEU A  12       1.211  26.161  89.207  0.00  0.00    +0.002 C 
ATOM     78  CD2 LEU A  12      -0.063  25.352  89.386  0.00  0.00    +0.000 C 
ATOM     79  CD1 LEU A  12       1.212  26.843  87.850  0.00  0.00    +0.000 C 
ENDBRANCH  76  77
ENDBRANCH  73  76
ENDBRANCH  70  73
ENDBRANCH  68  69
BRANCH  68  80
ATOM     80  CB  SER A  11       5.572  25.025  88.427  0.00  0.00    +0.166 C 
BRANCH  80  81
ATOM     81  OG  SER A  11       4.403  24.348  88.842  0.00  0.00    -0.380 OA
ATOM     82  H   SER A  11       4.224  23.594  88.226  0.00  0.00    +0.211 HD
ENDBRANCH  80  81
ENDBRANCH  68  80
ENDBRANCH  66  68
ENDBRANCH  63  64
BRANCH  63  83
ATOM     83  CB  MET A  10       8.468  25.093  92.664  0.00  0.00    +0.041 C 
BRANCH  83  84
ATOM     84  CG  MET A  10       9.612  25.862  92.013  0.00  0.00    +0.060 C 
BRANCH  84  85
ATOM     85  SD  MET A  10       9.536  25.847  90.212  0.00  0.00    -0.139 S 
ATOM     86  CE  MET A  10       9.762  24.101  89.874  0.00  0.00    +0.069 C 
ENDBRANCH  84  85
ENDBRANCH  83  84
ENDBRANCH  63  83
ENDBRANCH  61  63
ENDBRANCH  58  59
BRANCH  58  87
ATOM     87  CB  VAL A   9       4.791  23.916  96.222  0.00  0.00    +0.027 C 
ATOM     88  CG2 VAL A   9       5.412  24.917  97.203  0.00  0.00    +0.002 C 
ATOM     89  CG1 VAL A   9       3.684  23.106  96.899  0.00  0.00    +0.002 C 
ENDBRANCH  58  87
ENDBRANCH  55  58
ENDBRANCH  53  54
BRANCH  53  90
ATOM     90  CB  GLN A   8       1.809  22.506  91.517  0.00  0.00    +0.039 C 
BRANCH  90  91
ATOM     91  CG  GLN A   8       1.476  21.841  90.172  0.00  0.00    +0.087 C 
BRANCH  91  92
ATOM     92  CD  GLN A   8       2.128  20.473  89.981  0.00  0.00    +0.219 C 
ATOM     93  OE1 GLN A   8       2.114  19.626  90.881  0.00  0.00    -0.275 OA
ATOM     94  NE2 GLN A   8       2.703  20.250  88.794  0.00  0.00    -0.329 N 
ATOM     95 HE21 GLN A   8       3.161  19.336  88.601  0.00  0.00    +0.145 HD
ATOM     96 HE22 GLN A   8       2.692  20.990  88.064  0.00  0.00    +0.145 HD
ENDBRANCH  91  92
ENDBRANCH  90  91
ENDBRANCH  53  90
ENDBRANCH  50  53
ENDBRANCH   1  49
BRANCH   1  97
ATOM     97  CB  TYR A   7       6.274  19.748  90.850  0.00  0.00    +0.055 C 
BRANCH  97  98
ATOM     98  CG  TYR A   7       6.947  20.366  89.642  0.00  0.00    -0.020 A 
ATOM     99  CD2 TYR A   7       8.314  20.216  89.427  0.00  0.00    -0.001 A 
ATOM    100  CE2 TYR A   7       8.935  20.770  88.312  0.00  0.00    +0.036 A 
ATOM    101  CZ  TYR A   7       8.190  21.480  87.395  0.00  0.00    +0.134 A 
ATOM    102  CE1 TYR A   7       6.830  21.647  87.586  0.00  0.00    +0.036 A 
ATOM    103  CD1 TYR A   7       6.215  21.084  88.702  0.00  0.00    -0.001 A 
BRANCH 101 104
ATOM    104  OH  TYR A   7       8.806  22.035  86.291  0.00  0.00    -0.506 OA
ATOM    105  HH  TYR A   7       9.772  21.820  86.311  0.00  0.00    +0.292 HD
ENDBRANCH 101 104
ENDBRANCH  97  98
ENDBRANCH   1  97
TORSDOF 46
REMARK  Name = ../refined-set-2016/4leq/4leq_pocket.pdb
REMARK  218 active torsions:
REMARK  status: ('A' for Active; 'I' for Inactive)
REMARK    1  A    between atoms: _1  and  _3
REMARK    2  A    between atoms: _3  and  _4
REMARK    3  A    between atoms: _3  and  _6
REMARK    4  A    between atoms: _6  and  _7
REMARK    5  A    between atoms: _7  and  _8
REMARK    6  A    between atoms: _11  and  _12
REMARK    7  A    between atoms: _17  and  _19
REMARK    8  A    between atoms: _19  and  _20
REMARK    9  A    between atoms: _19  and  _22
REMARK   10  A    between atoms: _25  and  _27
REMARK   11  A    between atoms: _27  and  _28
REMARK   12  A    between atoms: _30  and  _32
REMARK   13  A    between atoms: _32  and  _33
REMARK   14  A    between atoms: _32  and  _35
REMARK   15  A    between atoms: _35  and  _36
REMARK   16  A    between atoms: _39  and  _41
REMARK   17  A    between atoms: _41  and  _42
REMARK   18  A    between atoms: _45  and  _47
REMARK   19  A    between atoms: _47  and  _48
REMARK   20  A    between atoms: _47  and  _50
REMARK   21  A    between atoms: _50  and  _51
REMARK   22  A    between atoms: _54  and  _56
REMARK   23  A    between atoms: _56  and  _57
REMARK   24  A    between atoms: _59  and  _61
REMARK   25  A    between atoms: _61  and  _62
REMARK   26  A    between atoms: _61  and  _64
REMARK   27  A    between atoms: _64  and  _65
REMARK   28  A    between atoms: _70  and  _72
REMARK   29  A    between atoms: _72  and  _73
REMARK   30  A    between atoms: _72  and  _75
REMARK   31  A    between atoms: _75  and  _76
REMARK   32  A    between atoms: _79  and  _81
REMARK   33  A    between atoms: _81  and  _82
REMARK   34  A    between atoms: _81  and  _84
REMARK   35  A    between atoms: _84  and  _85
REMARK   36  A    between atoms: _90  and  _91
REMARK   37  A    between atoms: _93  and  _95
REMARK   38  A    between atoms: _95  and  _96
REMARK   39  A    between atoms: _95  and  _98
REMARK   40  A    between atoms: _98  and  _99
REMARK   41  A    between atoms: _104  and  _106
REMARK   42  A    between atoms: _106  and  _107
REMARK   43  A    between atoms: _106  and  _109
REMARK   44  A    between atoms: _109  and  _110
REMARK   45  A    between atoms: _113  and  _115
REMARK   46  A    between atoms: _115  and  _116
REMARK   47  A    between atoms: _115  and  _118
REMARK   48  A    between atoms: _118  and  _119
REMARK   49  A    between atoms: _122  and  _124
REMARK   50  A    between atoms: _124  and  _125
REMARK   51  A    between atoms: _124  and  _127
REMARK   52  A    between atoms: _127  and  _128
REMARK   53  A    between atoms: _131  and  _133
REMARK   54  A    between atoms: _133  and  _134
REMARK   55  A    between atoms: _133  and  _136
REMARK   56  A    between atoms: _136  and  _137
REMARK   57  A    between atoms: _139  and  _141
REMARK   58  A    between atoms: _141  and  _142
REMARK   59  A    between atoms: _144  and  _146
REMARK   60  A    between atoms: _146  and  _147
REMARK   61  A    between atoms: _149  and  _151
REMARK   62  A    between atoms: _151  and  _152
REMARK   63  A    between atoms: _151  and  _154
REMARK   64  A    between atoms: _154  and  _155
REMARK   65  A    between atoms: _160  and  _161
REMARK   66  A    between atoms: _163  and  _165
REMARK   67  A    between atoms: _165  and  _166
REMARK   68  A    between atoms: _165  and  _168
REMARK   69  A    between atoms: _168  and  _169
REMARK   70  A    between atoms: _169  and  _170
REMARK   71  A    between atoms: _175  and  _177
REMARK   72  A    between atoms: _177  and  _178
REMARK   73  A    between atoms: _177  and  _180
REMARK   74  A    between atoms: _183  and  _185
REMARK   75  A    between atoms: _185  and  _186
REMARK   76  A    between atoms: _185  and  _188
REMARK   77  A    between atoms: _188  and  _189
REMARK   78  A    between atoms: _189  and  _190
REMARK   79  A    between atoms: _192  and  _194
REMARK   80  A    between atoms: _194  and  _195
REMARK   81  A    between atoms: _194  and  _197
REMARK   82  A    between atoms: _197  and  _198
REMARK   83  A    between atoms: _200  and  _202
REMARK   84  A    between atoms: _202  and  _203
REMARK   85  A    between atoms: _202  and  _205
REMARK   86  A    between atoms: _205  and  _206
REMARK   87  A    between atoms: _209  and  _211
REMARK   88  A    between atoms: _211  and  _212
REMARK   89  A    between atoms: _211  and  _214
REMARK   90  A    between atoms: _214  and  _215
REMARK   91  A    between atoms: _215  and  _216
REMARK   92  A    between atoms: _221  and  _223
REMARK   93  A    between atoms: _223  and  _224
REMARK   94  A    between atoms: _223  and  _226
REMARK   95  A    between atoms: _226  and  _227
REMARK   96  A    between atoms: _227  and  _228
REMARK   97  A    between atoms: _230  and  _232
REMARK   98  A    between atoms: _232  and  _233
REMARK   99  A    between atoms: _236  and  _238
REMARK  100  A    between atoms: _238  and  _239
REMARK  101  A    between atoms: _238  and  _241
REMARK  102  A    between atoms: _241  and  _242
REMARK  103  A    between atoms: _248  and  _250
REMARK  104  A    between atoms: _250  and  _251
REMARK  105  A    between atoms: _250  and  _253
REMARK  106  A    between atoms: _253  and  _254
REMARK  107  A    between atoms: _257  and  _259
REMARK  108  A    between atoms: _259  and  _260
REMARK  109  A    between atoms: _259  and  _262
REMARK  110  A    between atoms: _262  and  _263
REMARK  111  A    between atoms: _263  and  _264
REMARK  112  A    between atoms: _267  and  _269
REMARK  113  A    between atoms: _269  and  _270
REMARK  114  A    between atoms: _269  and  _272
REMARK  115  A    between atoms: _274  and  _276
REMARK  116  A    between atoms: _276  and  _277
REMARK  117  A    between atoms: _276  and  _279
REMARK  118  A    between atoms: _279  and  _280
REMARK  119  A    between atoms: _283  and  _285
REMARK  120  A    between atoms: _285  and  _286
REMARK  121  A    between atoms: _285  and  _288
REMARK  122  A    between atoms: _288  and  _289
REMARK  123  A    between atoms: _291  and  _293
REMARK  124  A    between atoms: _293  and  _294
REMARK  125  A    between atoms: _293  and  _296
REMARK  126  A    between atoms: _296  and  _297
REMARK  127  A    between atoms: _300  and  _302
REMARK  128  A    between atoms: _302  and  _303
REMARK  129  A    between atoms: _302  and  _305
REMARK  130  A    between atoms: _305  and  _306
REMARK  131  A    between atoms: _306  and  _307
REMARK  132  A    between atoms: _312  and  _314
REMARK  133  A    between atoms: _314  and  _315
REMARK  134  A    between atoms: _314  and  _317
REMARK  135  A    between atoms: _317  and  _318
REMARK  136  A    between atoms: _318  and  _319
REMARK  137  A    between atoms: _324  and  _326
REMARK  138  A    between atoms: _326  and  _327
REMARK  139  A    between atoms: _329  and  _331
REMARK  140  A    between atoms: _331  and  _332
REMARK  141  A    between atoms: _331  and  _334
REMARK  142  A    between atoms: _334  and  _335
REMARK  143  A    between atoms: _337  and  _339
REMARK  144  A    between atoms: _339  and  _340
REMARK  145  A    between atoms: _339  and  _342
REMARK  146  A    between atoms: _342  and  _343
REMARK  147  A    between atoms: _343  and  _344
REMARK  148  A    between atoms: _344  and  _345
REMARK  149  A    between atoms: _354  and  _356
REMARK  150  A    between atoms: _356  and  _357
REMARK  151  A    between atoms: _360  and  _362
REMARK  152  A    between atoms: _362  and  _363
REMARK  153  A    between atoms: _362  and  _365
REMARK  154  A    between atoms: _368  and  _370
REMARK  155  A    between atoms: _370  and  _371
REMARK  156  A    between atoms: _373  and  _375
REMARK  157  A    between atoms: _375  and  _376
REMARK  158  A    between atoms: _378  and  _380
REMARK  159  A    between atoms: _380  and  _381
REMARK  160  A    between atoms: _380  and  _383
REMARK  161  A    between atoms: _383  and  _384
REMARK  162  A    between atoms: _387  and  _389
REMARK  163  A    between atoms: _389  and  _390
REMARK  164  A    between atoms: _393  and  _395
REMARK  165  A    between atoms: _395  and  _396
REMARK  166  A    between atoms: _395  and  _398
REMARK  167  A    between atoms: _401  and  _403
REMARK  168  A    between atoms: _403  and  _404
REMARK  169  A    between atoms: _406  and  _408
REMARK  170  A    between atoms: _408  and  _409
REMARK  171  A    between atoms: _408  and  _411
REMARK  172  A    between atoms: _411  and  _412
REMARK  173  A    between atoms: _412  and  _413
REMARK  174  A    between atoms: _416  and  _418
REMARK  175  A    between atoms: _418  and  _419
REMARK  176  A    between atoms: _418  and  _421
REMARK  177  A    between atoms: _421  and  _422
REMARK  178  A    between atoms: _427  and  _428
REMARK  179  A    between atoms: _430  and  _432
REMARK  180  A    between atoms: _432  and  _433
REMARK  181  A    between atoms: _432  and  _435
REMARK  182  A    between atoms: _435  and  _436
REMARK  183  A    between atoms: _439  and  _441
REMARK  184  A    between atoms: _441  and  _442
REMARK  185  A    between atoms: _441  and  _444
REMARK  186  A    between atoms: _444  and  _445
REMARK  187  A    between atoms: _445  and  _446
REMARK  188  A    between atoms: _448  and  _450
REMARK  189  A    between atoms: _450  and  _451
REMARK  190  A    between atoms: _453  and  _455
REMARK  191  A    between atoms: _455  and  _456
REMARK  192  A    between atoms: _455  and  _458
REMARK  193  A    between atoms: _461  and  _463
REMARK  194  A    between atoms: _463  and  _464
REMARK  195  A    between atoms: _466  and  _468
REMARK  196  A    between atoms: _468  and  _469
REMARK  197  A    between atoms: _468  and  _471
REMARK  198  A    between atoms: _471  and  _472
REMARK  199  A    between atoms: _478  and  _480
REMARK  200  A    between atoms: _480  and  _481
REMARK  201  A    between atoms: _480  and  _483
REMARK  202  A    between atoms: _483  and  _484
REMARK  203  A    between atoms: _487  and  _489
REMARK  204  A    between atoms: _489  and  _490
REMARK  205  A    between atoms: _489  and  _492
REMARK  206  A    between atoms: _494  and  _496
REMARK  207  A    between atoms: _496  and  _497
REMARK  208  A    between atoms: _496  and  _499
REMARK  209  A    between atoms: _502  and  _504
REMARK  210  A    between atoms: _504  and  _505
REMARK  211  A    between atoms: _504  and  _507
REMARK  212  A    between atoms: _507  and  _508
REMARK  213  A    between atoms: _511  and  _513
REMARK  214  A    between atoms: _513  and  _514
REMARK  215  A    between atoms: _513  and  _516
REMARK  216  A    between atoms: _516  and  _517
REMARK  217  A    between atoms: _517  and  _518
REMARK  218  A    between atoms: _518  and  _519
REMARK                            x       y       z     vdW  Elec       q    Type
REMARK                         _______ _______ _______ _____ _____    ______ ____
ROOT
ATOM      1  CB  GLN A   1      -2.431  10.430  97.526  0.00  0.00    +0.035 C 
ENDROOT
BRANCH   1   2
ATOM      2  CA  GLN A   1      -3.944  10.496  97.340  0.00  0.00    +0.134 C 
BRANCH   2   3
ATOM      3  N   GLN A   1      -4.485  11.675  97.997  0.00  0.00    -0.239 NA
ATOM      4  H   GLN A   1      -3.890  12.229  98.646  0.00  0.00    +0.142 HD
ENDBRANCH   2   3
BRANCH   2   5
ATOM      5  C   GLN A   1      -4.662   9.235  97.818  0.00  0.00    +0.224 C 
ATOM      6  O   GLN A   1      -4.879   8.308  97.036  0.00  0.00    -0.287 OA
ENDBRANCH   2   5
ENDBRANCH   1   2
BRANCH   1   7
ATOM      7  CG  GLN A   1      -1.737  11.611  96.857  0.00  0.00    +0.087 C 
BRANCH   7   8
ATOM      8  CD  GLN A   1      -0.225  11.586  97.025  0.00  0.00    +0.219 C 
ATOM      9  NE2 GLN A   1       0.299  12.507  97.834  0.00  0.00    -0.329 N 
ATOM     10 HE21 GLN A   1      -0.321  13.189  98.316  0.00  0.00    +0.145 HD
ATOM     11 HE22 GLN A   1       1.328  12.544  97.983  0.00  0.00    +0.145 HD
ATOM     12  OE1 GLN A   1       0.463  10.758  96.432  0.00  0.00    -0.275 OA
ENDBRANCH   7   8
ENDBRANCH   1   7
TORSDOF 5
REMARK  Name = ../refined-set-2016/4leq/4leq_pocket.pdb
REMARK  218 active torsions:
REMARK  status: ('A' for Active; 'I' for Inactive)
REMARK    1  A    between atoms: _1  and  _3
REMARK    2  A    between atoms: _3  and  _4
REMARK    3  A    between atoms: _3  and  _6
REMARK    4  A    between atoms: _6  and  _7
REMARK    5  A    between atoms: _7  and  _8
REMARK    6  A    between atoms: _11  and  _12
REMARK    7  A    between atoms: _17  and  _19
REMARK    8  A    between atoms: _19  and  _20
REMARK    9  A    between atoms: _19  and  _22
REMARK   10  A    between atoms: _25  and  _27
REMARK   11  A    between atoms: _27  and  _28
REMARK   12  A    between atoms: _30  and  _32
REMARK   13  A    between atoms: _32  and  _33
REMARK   14  A    between atoms: _32  and  _35
REMARK   15  A    between atoms: _35  and  _36
REMARK   16  A    between atoms: _39  and  _41
REMARK   17  A    between atoms: _41  and  _42
REMARK   18  A    between atoms: _45  and  _47
REMARK   19  A    between atoms: _47  and  _48
REMARK   20  A    between atoms: _47  and  _50
REMARK   21  A    between atoms: _50  and  _51
REMARK   22  A    between atoms: _54  and  _56
REMARK   23  A    between atoms: _56  and  _57
REMARK   24  A    between atoms: _59  and  _61
REMARK   25  A    between atoms: _61  and  _62
REMARK   26  A    between atoms: _61  and  _64
REMARK   27  A    between atoms: _64  and  _65
REMARK   28  A    between atoms: _70  and  _72
REMARK   29  A    between atoms: _72  and  _73
REMARK   30  A    between atoms: _72  and  _75
REMARK   31  A    between atoms: _75  and  _76
REMARK   32  A    between atoms: _79  and  _81
REMARK   33  A    between atoms: _81  and  _82
REMARK   34  A    between atoms: _81  and  _84
REMARK   35  A    between atoms: _84  and  _85
REMARK   36  A    between atoms: _90  and  _91
REMARK   37  A    between atoms: _93  and  _95
REMARK   38  A    between atoms: _95  and  _96
REMARK   39  A    between atoms: _95  and  _98
REMARK   40  A    between atoms: _98  and  _99
REMARK   41  A    between atoms: _104  and  _106
REMARK   42  A    between atoms: _106  and  _107
REMARK   43  A    between atoms: _106  and  _109
REMARK   44  A    between atoms: _109  and  _110
REMARK   45  A    between atoms: _113  and  _115
REMARK   46  A    between atoms: _115  and  _116
REMARK   47  A    between atoms: _115  and  _118
REMARK   48  A    between atoms: _118  and  _119
REMARK   49  A    between atoms: _122  and  _124
REMARK   50  A    between atoms: _124  and  _125
REMARK   51  A    between atoms: _124  and  _127
REMARK   52  A    between atoms: _127  and  _128
REMARK   53  A    between atoms: _131  and  _133
REMARK   54  A    between atoms: _133  and  _134
REMARK   55  A    between atoms: _133  and  _136
REMARK   56  A    between atoms: _136  and  _137
REMARK   57  A    between atoms: _139  and  _141
REMARK   58  A    between atoms: _141  and  _142
REMARK   59  A    between atoms: _144  and  _146
REMARK   60  A    between atoms: _146  and  _147
REMARK   61  A    between atoms: _149  and  _151
REMARK   62  A    between atoms: _151  and  _152
REMARK   63  A    between atoms: _151  and  _154
REMARK   64  A    between atoms: _154  and  _155
REMARK   65  A    between atoms: _160  and  _161
REMARK   66  A    between atoms: _163  and  _165
REMARK   67  A    between atoms: _165  and  _166
REMARK   68  A    between atoms: _165  and  _168
REMARK   69  A    between atoms: _168  and  _169
REMARK   70  A    between atoms: _169  and  _170
REMARK   71  A    between atoms: _175  and  _177
REMARK   72  A    between atoms: _177  and  _178
REMARK   73  A    between atoms: _177  and  _180
REMARK   74  A    between atoms: _183  and  _185
REMARK   75  A    between atoms: _185  and  _186
REMARK   76  A    between atoms: _185  and  _188
REMARK   77  A    between atoms: _188  and  _189
REMARK   78  A    between atoms: _189  and  _190
REMARK   79  A    between atoms: _192  and  _194
REMARK   80  A    between atoms: _194  and  _195
REMARK   81  A    between atoms: _194  and  _197
REMARK   82  A    between atoms: _197  and  _198
REMARK   83  A    between atoms: _200  and  _202
REMARK   84  A    between atoms: _202  and  _203
REMARK   85  A    between atoms: _202  and  _205
REMARK   86  A    between atoms: _205  and  _206
REMARK   87  A    between atoms: _209  and  _211
REMARK   88  A    between atoms: _211  and  _212
REMARK   89  A    between atoms: _211  and  _214
REMARK   90  A    between atoms: _214  and  _215
REMARK   91  A    between atoms: _215  and  _216
REMARK   92  A    between atoms: _221  and  _223
REMARK   93  A    between atoms: _223  and  _224
REMARK   94  A    between atoms: _223  and  _226
REMARK   95  A    between atoms: _226  and  _227
REMARK   96  A    between atoms: _227  and  _228
REMARK   97  A    between atoms: _230  and  _232
REMARK   98  A    between atoms: _232  and  _233
REMARK   99  A    between atoms: _236  and  _238
REMARK  100  A    between atoms: _238  and  _239
REMARK  101  A    between atoms: _238  and  _241
REMARK  102  A    between atoms: _241  and  _242
REMARK  103  A    between atoms: _248  and  _250
REMARK  104  A    between atoms: _250  and  _251
REMARK  105  A    between atoms: _250  and  _253
REMARK  106  A    between atoms: _253  and  _254
REMARK  107  A    between atoms: _257  and  _259
REMARK  108  A    between atoms: _259  and  _260
REMARK  109  A    between atoms: _259  and  _262
REMARK  110  A    between atoms: _262  and  _263
REMARK  111  A    between atoms: _263  and  _264
REMARK  112  A    between atoms: _267  and  _269
REMARK  113  A    between atoms: _269  and  _270
REMARK  114  A    between atoms: _269  and  _272
REMARK  115  A    between atoms: _274  and  _276
REMARK  116  A    between atoms: _276  and  _277
REMARK  117  A    between atoms: _276  and  _279
REMARK  118  A    between atoms: _279  and  _280
REMARK  119  A    between atoms: _283  and  _285
REMARK  120  A    between atoms: _285  and  _286
REMARK  121  A    between atoms: _285  and  _288
REMARK  122  A    between atoms: _288  and  _289
REMARK  123  A    between atoms: _291  and  _293
REMARK  124  A    between atoms: _293  and  _294
REMARK  125  A    between atoms: _293  and  _296
REMARK  126  A    between atoms: _296  and  _297
REMARK  127  A    between atoms: _300  and  _302
REMARK  128  A    between atoms: _302  and  _303
REMARK  129  A    between atoms: _302  and  _305
REMARK  130  A    between atoms: _305  and  _306
REMARK  131  A    between atoms: _306  and  _307
REMARK  132  A    between atoms: _312  and  _314
REMARK  133  A    between atoms: _314  and  _315
REMARK  134  A    between atoms: _314  and  _317
REMARK  135  A    between atoms: _317  and  _318
REMARK  136  A    between atoms: _318  and  _319
REMARK  137  A    between atoms: _324  and  _326
REMARK  138  A    between atoms: _326  and  _327
REMARK  139  A    between atoms: _329  and  _331
REMARK  140  A    between atoms: _331  and  _332
REMARK  141  A    between atoms: _331  and  _334
REMARK  142  A    between atoms: _334  and  _335
REMARK  143  A    between atoms: _337  and  _339
REMARK  144  A    between atoms: _339  and  _340
REMARK  145  A    between atoms: _339  and  _342
REMARK  146  A    between atoms: _342  and  _343
REMARK  147  A    between atoms: _343  and  _344
REMARK  148  A    between atoms: _344  and  _345
REMARK  149  A    between atoms: _354  and  _356
REMARK  150  A    between atoms: _356  and  _357
REMARK  151  A    between atoms: _360  and  _362
REMARK  152  A    between atoms: _362  and  _363
REMARK  153  A    between atoms: _362  and  _365
REMARK  154  A    between atoms: _368  and  _370
REMARK  155  A    between atoms: _370  and  _371
REMARK  156  A    between atoms: _373  and  _375
REMARK  157  A    between atoms: _375  and  _376
REMARK  158  A    between atoms: _378  and  _380
REMARK  159  A    between atoms: _380  and  _381
REMARK  160  A    between atoms: _380  and  _383
REMARK  161  A    between atoms: _383  and  _384
REMARK  162  A    between atoms: _387  and  _389
REMARK  163  A    between atoms: _389  and  _390
REMARK  164  A    between atoms: _393  and  _395
REMARK  165  A    between atoms: _395  and  _396
REMARK  166  A    between atoms: _395  and  _398
REMARK  167  A    between atoms: _401  and  _403
REMARK  168  A    between atoms: _403  and  _404
REMARK  169  A    between atoms: _406  and  _408
REMARK  170  A    between atoms: _408  and  _409
REMARK  171  A    between atoms: _408  and  _411
REMARK  172  A    between atoms: _411  and  _412
REMARK  173  A    between atoms: _412  and  _413
REMARK  174  A    between atoms: _416  and  _418
REMARK  175  A    between atoms: _418  and  _419
REMARK  176  A    between atoms: _418  and  _421
REMARK  177  A    between atoms: _421  and  _422
REMARK  178  A    between atoms: _427  and  _428
REMARK  179  A    between atoms: _430  and  _432
REMARK  180  A    between atoms: _432  and  _433
REMARK  181  A    between atoms: _432  and  _435
REMARK  182  A    between atoms: _435  and  _436
REMARK  183  A    between atoms: _439  and  _441
REMARK  184  A    between atoms: _441  and  _442
REMARK  185  A    between atoms: _441  and  _444
REMARK  186  A    between atoms: _444  and  _445
REMARK  187  A    between atoms: _445  and  _446
REMARK  188  A    between atoms: _448  and  _450
REMARK  189  A    between atoms: _450  and  _451
REMARK  190  A    between atoms: _453  and  _455
REMARK  191  A    between atoms: _455  and  _456
REMARK  192  A    between atoms: _455  and  _458
REMARK  193  A    between atoms: _461  and  _463
REMARK  194  A    between atoms: _463  and  _464
REMARK  195  A    between atoms: _466  and  _468
REMARK  196  A    between atoms: _468  and  _469
REMARK  197  A    between atoms: _468  and  _471
REMARK  198  A    between atoms: _471  and  _472
REMARK  199  A    between atoms: _478  and  _480
REMARK  200  A    between atoms: _480  and  _481
REMARK  201  A    between atoms: _480  and  _483
REMARK  202  A    between atoms: _483  and  _484
REMARK  203  A    between atoms: _487  and  _489
REMARK  204  A    between atoms: _489  and  _490
REMARK  205  A    between atoms: _489  and  _492
REMARK  206  A    between atoms: _494  and  _496
REMARK  207  A    between atoms: _496  and  _497
REMARK  208  A    between atoms: _496  and  _499
REMARK  209  A    between atoms: _502  and  _504
REMARK  210  A    between atoms: _504  and  _505
REMARK  211  A    between atoms: _504  and  _507
REMARK  212  A    between atoms: _507  and  _508
REMARK  213  A    between atoms: _511  and  _513
REMARK  214  A    between atoms: _513  and  _514
REMARK  215  A    between atoms: _513  and  _516
REMARK  216  A    between atoms: _516  and  _517
REMARK  217  A    between atoms: _517  and  _518
REMARK  218  A    between atoms: _518  and  _519
REMARK                            x       y       z     vdW  Elec       q    Type
REMARK                         _______ _______ _______ _____ _____    ______ ____
ROOT
ATOM      1  CA  ASP A   4       7.508  18.412  99.348  0.00  0.00    +0.160 C 
ENDROOT
BRANCH   1   4
ATOM      2  C   PHE A   3       5.618  17.194 100.330  0.00  0.00    +0.241 C 
ATOM      3  O   PHE A   3       6.041  17.300 101.488  0.00  0.00    -0.273 OA
ATOM      4  N   ASP A   4       6.227  17.722  99.271  0.00  0.00    -0.297 N 
ATOM      5  H   ASP A   4       5.766  17.638  98.343  0.00  0.00    +0.150 HD
BRANCH   2   6
ATOM      6  CA  PHE A   3       4.347  16.414 100.034  0.00  0.00    +0.153 C 
BRANCH   6   8
ATOM      7  C   ALA A   2       5.170  14.169  99.591  0.00  0.00    +0.241 C 
ATOM      8  N   PHE A   3       4.556  15.022 100.406  0.00  0.00    -0.297 N 
ATOM      9  H   PHE A   3       4.217  14.687 101.330  0.00  0.00    +0.150 HD
ATOM     10  O   ALA A   2       5.547  14.481  98.446  0.00  0.00    -0.273 OA
BRANCH   7  11
ATOM     11  CA  ALA A   2       5.403  12.760 100.146  0.00  0.00    +0.149 C 
ATOM     12  CB  ALA A   2       6.736  12.698 100.884  0.00  0.00    +0.031 C 
BRANCH  11  14
ATOM     13  C   MET A   1       4.319  11.637  98.286  0.00  0.00    +0.238 C 
ATOM     14  N   ALA A   2       5.380  11.776  99.074  0.00  0.00    -0.297 N 
ATOM     15  H   ALA A   2       6.211  11.169  98.922  0.00  0.00    +0.150 HD
ATOM     16  O   MET A   1       3.259  12.243  98.477  0.00  0.00    -0.274 OA
BRANCH  13  17
ATOM     17  CA  MET A   1       4.494  10.707  97.092  0.00  0.00    +0.146 C 
BRANCH  17  18
ATOM     18  N   MET A   1       3.304   9.887  96.896  0.00  0.00    -0.238 NA
ATOM     19  H   MET A   1       2.517  10.251  96.322  0.00  0.00    +0.142 HD
ENDBRANCH  17  18
BRANCH  17  20
ATOM     20  CB  MET A   1       4.793  11.561  95.862  0.00  0.00    +0.038 C 
BRANCH  20  21
ATOM     21  CG  MET A   1       5.070  10.759  94.603  0.00  0.00    +0.060 C 
BRANCH  21  22
ATOM     22  SD  MET A   1       6.369   9.515  94.750  0.00  0.00    -0.139 S 
ATOM     23  CE  MET A   1       7.767  10.523  95.209  0.00  0.00    +0.069 C 
ENDBRANCH  21  22
ENDBRANCH  20  21
ENDBRANCH  17  20
ENDBRANCH  13  17
ENDBRANCH  11  14
ENDBRANCH   7  11
ENDBRANCH   6   8
BRANCH   6  24
ATOM     24  CB  PHE A   3       3.159  17.005 100.793  0.00  0.00    +0.055 C 
BRANCH  24  25
ATOM     25  CG  PHE A   3       2.814  18.397 100.376  0.00  0.00    -0.020 A 
ATOM     26  CD2 PHE A   3       3.023  19.463 101.236  0.00  0.00    -0.004 A 
ATOM     27  CE2 PHE A   3       2.704  20.760 100.851  0.00  0.00    -0.000 A 
ATOM     28  CZ  PHE A   3       2.171  20.997  99.595  0.00  0.00    -0.000 A 
ATOM     29  CE1 PHE A   3       1.959  19.937  98.727  0.00  0.00    -0.000 A 
ATOM     30  CD1 PHE A   3       2.273  18.644  99.122  0.00  0.00    -0.004 A 
ENDBRANCH  24  25
ENDBRANCH   6  24
ENDBRANCH   2   6
ENDBRANCH   1   4
BRANCH   1  31
ATOM     31  C   ASP A   4       7.393  19.789  98.717  0.00  0.00    +0.241 C 
ATOM     32  N   GLU A   5       8.523  20.473  98.624  0.00  0.00    -0.297 N 
ATOM     33  H   GLU A   5       9.340  20.189  99.202  0.00  0.00    +0.150 HD
ATOM     34  O   ASP A   4       6.313  20.223  98.322  0.00  0.00    -0.273 OA
BRANCH  32  35
ATOM     35  CA  GLU A   5       8.644  21.614  97.729  0.00  0.00    +0.149 C 
BRANCH  35  36
ATOM     36  C   GLU A   5       9.794  21.364  96.771  0.00  0.00    +0.241 C 
ATOM     37  O   GLU A   5      10.919  21.121  97.204  0.00  0.00    -0.273 OA
ATOM     38  N   CYS A   6       9.521  21.416  95.471  0.00  0.00    -0.296 N 
ATOM     39  H   CYS A   6       8.535  21.491  95.150  0.00  0.00    +0.150 HD
BRANCH  38  40
ATOM     40  CA  CYS A   6      10.602  21.368  94.495  0.00  0.00    +0.160 C 
BRANCH  40  41
ATOM     41  C   CYS A   6      11.338  22.697  94.524  0.00  0.00    +0.242 C 
ATOM     42  N   THR A   7      12.558  22.713  95.044  0.00  0.00    -0.296 N 
ATOM     43  H   THR A   7      12.994  21.824  95.362  0.00  0.00    +0.150 HD
ATOM     44  O   CYS A   6      10.802  23.701  94.087  0.00  0.00    -0.273 OA
BRANCH  42  45
ATOM     45  CA  THR A   7      13.296  23.967  95.174  0.00  0.00    +0.164 C 
BRANCH  45  46
ATOM     46  C   THR A   7      13.553  24.569  93.793  0.00  0.00    +0.229 C 
ATOM     47  O   THR A   7      13.985  23.868  92.880  0.00  0.00    -0.286 OA
ENDBRANCH  45  46
BRANCH  45  48
ATOM     48  CB  THR A   7      14.637  23.737  95.895  0.00  0.00    +0.136 C 
ATOM     49  CG2 THR A   7      15.330  25.058  96.215  0.00  0.00    +0.034 C 
BRANCH  48  50
ATOM     50  OG1 THR A   7      14.403  23.023  97.110  0.00  0.00    -0.382 OA
ATOM     51  HG1 THR A   7      15.264  22.874  97.575  0.00  0.00    +0.210 HD
ENDBRANCH  48  50
ENDBRANCH  45  48
ENDBRANCH  42  45
ENDBRANCH  40  41
BRANCH  40  52
ATOM     52  CB  CYS A   6      10.056  21.130  93.092  0.00  0.00    +0.098 C 
ATOM     53  SG  CYS A   6      11.344  21.021  91.837  0.00  0.00    -0.080 S 
ENDBRANCH  40  52
ENDBRANCH  38  40
ENDBRANCH  35  36
BRANCH  35  54
ATOM     54  CB  GLU A   5       8.923  22.899  98.497  0.00  0.00    +0.041 C 
BRANCH  54  55
ATOM     55  CG  GLU A   5       9.417  24.016  97.571  0.00  0.00    +0.116 C 
BRANCH  55  56
ATOM     56  CD  GLU A   5       9.659  25.336  98.278  0.00  0.00    +0.365 C 
ATOM     57  OE2 GLU A   5      10.598  25.422  99.103  0.00  0.00    -0.246 OA
ATOM     58  OE1 GLU A   5       8.910  26.296  97.994  0.00  0.00    -0.246 OA
ENDBRANCH  55  56
ENDBRANCH  54  55
ENDBRANCH  35  54
ENDBRANCH  32  35
ENDBRANCH   1  31
BRANCH   1  59
ATOM     59  CB  ASP A   4       8.585  17.604  98.597  0.00  0.00    +0.143 C 
BRANCH  59  60
ATOM     60  CG  ASP A   4       8.310  17.490  97.096  0.00  0.00    +0.367 C 
ATOM     61  OD2 ASP A   4       7.127  17.428  96.694  0.00  0.00    -0.246 OA
ATOM     62  OD1 ASP A   4       9.289  17.435  96.316  0.00  0.00    -0.246 OA
ENDBRANCH  59  60
ENDBRANCH   1  59
TORSDOF 27
REMARK  Name = ../refined-set-2016/4leq/4leq_pocket.pdb
REMARK  218 active torsions:
REMARK  status: ('A' for Active; 'I' for Inactive)
REMARK    1  A    between atoms: _1  and  _3
REMARK    2  A    between atoms: _3  and  _4
REMARK    3  A    between atoms: _3  and  _6
REMARK    4  A    between atoms: _6  and  _7
REMARK    5  A    between atoms: _7  and  _8
REMARK    6  A    between atoms: _11  and  _12
REMARK    7  A    between atoms: _17  and  _19
REMARK    8  A    between atoms: _19  and  _20
REMARK    9  A    between atoms: _19  and  _22
REMARK   10  A    between atoms: _25  and  _27
REMARK   11  A    between atoms: _27  and  _28
REMARK   12  A    between atoms: _30  and  _32
REMARK   13  A    between atoms: _32  and  _33
REMARK   14  A    between atoms: _32  and  _35
REMARK   15  A    between atoms: _35  and  _36
REMARK   16  A    between atoms: _39  and  _41
REMARK   17  A    between atoms: _41  and  _42
REMARK   18  A    between atoms: _45  and  _47
REMARK   19  A    between atoms: _47  and  _48
REMARK   20  A    between atoms: _47  and  _50
REMARK   21  A    between atoms: _50  and  _51
REMARK   22  A    between atoms: _54  and  _56
REMARK   23  A    between atoms: _56  and  _57
REMARK   24  A    between atoms: _59  and  _61
REMARK   25  A    between atoms: _61  and  _62
REMARK   26  A    between atoms: _61  and  _64
REMARK   27  A    between atoms: _64  and  _65
REMARK   28  A    between atoms: _70  and  _72
REMARK   29  A    between atoms: _72  and  _73
REMARK   30  A    between atoms: _72  and  _75
REMARK   31  A    between atoms: _75  and  _76
REMARK   32  A    between atoms: _79  and  _81
REMARK   33  A    between atoms: _81  and  _82
REMARK   34  A    between atoms: _81  and  _84
REMARK   35  A    between atoms: _84  and  _85
REMARK   36  A    between atoms: _90  and  _91
REMARK   37  A    between atoms: _93  and  _95
REMARK   38  A    between atoms: _95  and  _96
REMARK   39  A    between atoms: _95  and  _98
REMARK   40  A    between atoms: _98  and  _99
REMARK   41  A    between atoms: _104  and  _106
REMARK   42  A    between atoms: _106  and  _107
REMARK   43  A    between atoms: _106  and  _109
REMARK   44  A    between atoms: _109  and  _110
REMARK   45  A    between atoms: _113  and  _115
REMARK   46  A    between atoms: _115  and  _116
REMARK   47  A    between atoms: _115  and  _118
REMARK   48  A    between atoms: _118  and  _119
REMARK   49  A    between atoms: _122  and  _124
REMARK   50  A    between atoms: _124  and  _125
REMARK   51  A    between atoms: _124  and  _127
REMARK   52  A    between atoms: _127  and  _128
REMARK   53  A    between atoms: _131  and  _133
REMARK   54  A    between atoms: _133  and  _134
REMARK   55  A    between atoms: _133  and  _136
REMARK   56  A    between atoms: _136  and  _137
REMARK   57  A    between atoms: _139  and  _141
REMARK   58  A    between atoms: _141  and  _142
REMARK   59  A    between atoms: _144  and  _146
REMARK   60  A    between atoms: _146  and  _147
REMARK   61  A    between atoms: _149  and  _151
REMARK   62  A    between atoms: _151  and  _152
REMARK   63  A    between atoms: _151  and  _154
REMARK   64  A    between atoms: _154  and  _155
REMARK   65  A    between atoms: _160  and  _161
REMARK   66  A    between atoms: _163  and  _165
REMARK   67  A    between atoms: _165  and  _166
REMARK   68  A    between atoms: _165  and  _168
REMARK   69  A    between atoms: _168  and  _169
REMARK   70  A    between atoms: _169  and  _170
REMARK   71  A    between atoms: _175  and  _177
REMARK   72  A    between atoms: _177  and  _178
REMARK   73  A    between atoms: _177  and  _180
REMARK   74  A    between atoms: _183  and  _185
REMARK   75  A    between atoms: _185  and  _186
REMARK   76  A    between atoms: _185  and  _188
REMARK   77  A    between atoms: _188  and  _189
REMARK   78  A    between atoms: _189  and  _190
REMARK   79  A    between atoms: _192  and  _194
REMARK   80  A    between atoms: _194  and  _195
REMARK   81  A    between atoms: _194  and  _197
REMARK   82  A    between atoms: _197  and  _198
REMARK   83  A    between atoms: _200  and  _202
REMARK   84  A    between atoms: _202  and  _203
REMARK   85  A    between atoms: _202  and  _205
REMARK   86  A    between atoms: _205  and  _206
REMARK   87  A    between atoms: _209  and  _211
REMARK   88  A    between atoms: _211  and  _212
REMARK   89  A    between atoms: _211  and  _214
REMARK   90  A    between atoms: _214  and  _215
REMARK   91  A    between atoms: _215  and  _216
REMARK   92  A    between atoms: _221  and  _223
REMARK   93  A    between atoms: _223  and  _224
REMARK   94  A    between atoms: _223  and  _226
REMARK   95  A    between atoms: _226  and  _227
REMARK   96  A    between atoms: _227  and  _228
REMARK   97  A    between atoms: _230  and  _232
REMARK   98  A    between atoms: _232  and  _233
REMARK   99  A    between atoms: _236  and  _238
REMARK  100  A    between atoms: _238  and  _239
REMARK  101  A    between atoms: _238  and  _241
REMARK  102  A    between atoms: _241  and  _242
REMARK  103  A    between atoms: _248  and  _250
REMARK  104  A    between atoms: _250  and  _251
REMARK  105  A    between atoms: _250  and  _253
REMARK  106  A    between atoms: _253  and  _254
REMARK  107  A    between atoms: _257  and  _259
REMARK  108  A    between atoms: _259  and  _260
REMARK  109  A    between atoms: _259  and  _262
REMARK  110  A    between atoms: _262  and  _263
REMARK  111  A    between atoms: _263  and  _264
REMARK  112  A    between atoms: _267  and  _269
REMARK  113  A    between atoms: _269  and  _270
REMARK  114  A    between atoms: _269  and  _272
REMARK  115  A    between atoms: _274  and  _276
REMARK  116  A    between atoms: _276  and  _277
REMARK  117  A    between atoms: _276  and  _279
REMARK  118  A    between atoms: _279  and  _280
REMARK  119  A    between atoms: _283  and  _285
REMARK  120  A    between atoms: _285  and  _286
REMARK  121  A    between atoms: _285  and  _288
REMARK  122  A    between atoms: _288  and  _289
REMARK  123  A    between atoms: _291  and  _293
REMARK  124  A    between atoms: _293  and  _294
REMARK  125  A    between atoms: _293  and  _296
REMARK  126  A    between atoms: _296  and  _297
REMARK  127  A    between atoms: _300  and  _302
REMARK  128  A    between atoms: _302  and  _303
REMARK  129  A    between atoms: _302  and  _305
REMARK  130  A    between atoms: _305  and  _306
REMARK  131  A    between atoms: _306  and  _307
REMARK  132  A    between atoms: _312  and  _314
REMARK  133  A    between atoms: _314  and  _315
REMARK  134  A    between atoms: _314  and  _317
REMARK  135  A    between atoms: _317  and  _318
REMARK  136  A    between atoms: _318  and  _319
REMARK  137  A    between atoms: _324  and  _326
REMARK  138  A    between atoms: _326  and  _327
REMARK  139  A    between atoms: _329  and  _331
REMARK  140  A    between atoms: _331  and  _332
REMARK  141  A    between atoms: _331  and  _334
REMARK  142  A    between atoms: _334  and  _335
REMARK  143  A    between atoms: _337  and  _339
REMARK  144  A    between atoms: _339  and  _340
REMARK  145  A    between atoms: _339  and  _342
REMARK  146  A    between atoms: _342  and  _343
REMARK  147  A    between atoms: _343  and  _344
REMARK  148  A    between atoms: _344  and  _345
REMARK  149  A    between atoms: _354  and  _356
REMARK  150  A    between atoms: _356  and  _357
REMARK  151  A    between atoms: _360  and  _362
REMARK  152  A    between atoms: _362  and  _363
REMARK  153  A    between atoms: _362  and  _365
REMARK  154  A    between atoms: _368  and  _370
REMARK  155  A    between atoms: _370  and  _371
REMARK  156  A    between atoms: _373  and  _375
REMARK  157  A    between atoms: _375  and  _376
REMARK  158  A    between atoms: _378  and  _380
REMARK  159  A    between atoms: _380  and  _381
REMARK  160  A    between atoms: _380  and  _383
REMARK  161  A    between atoms: _383  and  _384
REMARK  162  A    between atoms: _387  and  _389
REMARK  163  A    between atoms: _389  and  _390
REMARK  164  A    between atoms: _393  and  _395
REMARK  165  A    between atoms: _395  and  _396
REMARK  166  A    between atoms: _395  and  _398
REMARK  167  A    between atoms: _401  and  _403
REMARK  168  A    between atoms: _403  and  _404
REMARK  169  A    between atoms: _406  and  _408
REMARK  170  A    between atoms: _408  and  _409
REMARK  171  A    between atoms: _408  and  _411
REMARK  172  A    between atoms: _411  and  _412
REMARK  173  A    between atoms: _412  and  _413
REMARK  174  A    between atoms: _416  and  _418
REMARK  175  A    between atoms: _418  and  _419
REMARK  176  A    between atoms: _418  and  _421
REMARK  177  A    between atoms: _421  and  _422
REMARK  178  A    between atoms: _427  and  _428
REMARK  179  A    between atoms: _430  and  _432
REMARK  180  A    between atoms: _432  and  _433
REMARK  181  A    between atoms: _432  and  _435
REMARK  182  A    between atoms: _435  and  _436
REMARK  183  A    between atoms: _439  and  _441
REMARK  184  A    between atoms: _441  and  _442
REMARK  185  A    between atoms: _441  and  _444
REMARK  186  A    between atoms: _444  and  _445
REMARK  187  A    between atoms: _445  and  _446
REMARK  188  A    between atoms: _448  and  _450
REMARK  189  A    between atoms: _450  and  _451
REMARK  190  A    between atoms: _453  and  _455
REMARK  191  A    between atoms: _455  and  _456
REMARK  192  A    between atoms: _455  and  _458
REMARK  193  A    between atoms: _461  and  _463
REMARK  194  A    between atoms: _463  and  _464
REMARK  195  A    between atoms: _466  and  _468
REMARK  196  A    between atoms: _468  and  _469
REMARK  197  A    between atoms: _468  and  _471
REMARK  198  A    between atoms: _471  and  _472
REMARK  199  A    between atoms: _478  and  _480
REMARK  200  A    between atoms: _480  and  _481
REMARK  201  A    between atoms: _480  and  _483
REMARK  202  A    between atoms: _483  and  _484
REMARK  203  A    between atoms: _487  and  _489
REMARK  204  A    between atoms: _489  and  _490
REMARK  205  A    between atoms: _489  and  _492
REMARK  206  A    between atoms: _494  and  _496
REMARK  207  A    between atoms: _496  and  _497
REMARK  208  A    between atoms: _496  and  _499
REMARK  209  A    between atoms: _502  and  _504
REMARK  210  A    between atoms: _504  and  _505
REMARK  211  A    between atoms: _504  and  _507
REMARK  212  A    between atoms: _507  and  _508
REMARK  213  A    between atoms: _511  and  _513
REMARK  214  A    between atoms: _513  and  _514
REMARK  215  A    between atoms: _513  and  _516
REMARK  216  A    between atoms: _516  and  _517
REMARK  217  A    between atoms: _517  and  _518
REMARK  218  A    between atoms: _518  and  _519
REMARK                            x       y       z     vdW  Elec       q    Type
REMARK                         _______ _______ _______ _____ _____    ______ ____
ROOT
ATOM      1  CA  SER A   1      10.577  19.423 102.928  0.00  0.00    +0.163 C 
ENDROOT
BRANCH   1   2
ATOM      2  N   SER A   1      11.017  20.657 103.570  0.00  0.00    -0.237 NA
ATOM      3  H   SER A   1      11.769  21.233 103.142  0.00  0.00    +0.142 HD
ENDBRANCH   1   2
BRANCH   1   4
ATOM      4  CB  SER A   1      10.786  18.211 103.827  0.00  0.00    +0.227 C 
ATOM      5  OG  SER A   1       9.973  17.300 103.820  0.00  0.00    -0.287 OA
ENDBRANCH   1   4
BRANCH   1   6
ATOM      6  C   SER A   1      11.261  19.213 101.572  0.00  0.00    +0.162 C 
BRANCH   6   7
ATOM      7  O   SER A   1      10.713  20.101 100.607  0.00  0.00    -0.380 OA
ATOM      8  H   SER A   1      11.161  19.957  99.736  0.00  0.00    +0.211 HD
ENDBRANCH   6   7
ENDBRANCH   1   6
TORSDOF 4
REMARK  Name = ../refined-set-2016/4leq/4leq_pocket.pdb
REMARK  218 active torsions:
REMARK  status: ('A' for Active; 'I' for Inactive)
REMARK    1  A    between atoms: _1  and  _3
REMARK    2  A    between atoms: _3  and  _4
REMARK    3  A    between atoms: _3  and  _6
REMARK    4  A    between atoms: _6  and  _7
REMARK    5  A    between atoms: _7  and  _8
REMARK    6  A    between atoms: _11  and  _12
REMARK    7  A    between atoms: _17  and  _19
REMARK    8  A    between atoms: _19  and  _20
REMARK    9  A    between atoms: _19  and  _22
REMARK   10  A    between atoms: _25  and  _27
REMARK   11  A    between atoms: _27  and  _28
REMARK   12  A    between atoms: _30  and  _32
REMARK   13  A    between atoms: _32  and  _33
REMARK   14  A    between atoms: _32  and  _35
REMARK   15  A    between atoms: _35  and  _36
REMARK   16  A    between atoms: _39  and  _41
REMARK   17  A    between atoms: _41  and  _42
REMARK   18  A    between atoms: _45  and  _47
REMARK   19  A    between atoms: _47  and  _48
REMARK   20  A    between atoms: _47  and  _50
REMARK   21  A    between atoms: _50  and  _51
REMARK   22  A    between atoms: _54  and  _56
REMARK   23  A    between atoms: _56  and  _57
REMARK   24  A    between atoms: _59  and  _61
REMARK   25  A    between atoms: _61  and  _62
REMARK   26  A    between atoms: _61  and  _64
REMARK   27  A    between atoms: _64  and  _65
REMARK   28  A    between atoms: _70  and  _72
REMARK   29  A    between atoms: _72  and  _73
REMARK   30  A    between atoms: _72  and  _75
REMARK   31  A    between atoms: _75  and  _76
REMARK   32  A    between atoms: _79  and  _81
REMARK   33  A    between atoms: _81  and  _82
REMARK   34  A    between atoms: _81  and  _84
REMARK   35  A    between atoms: _84  and  _85
REMARK   36  A    between atoms: _90  and  _91
REMARK   37  A    between atoms: _93  and  _95
REMARK   38  A    between atoms: _95  and  _96
REMARK   39  A    between atoms: _95  and  _98
REMARK   40  A    between atoms: _98  and  _99
REMARK   41  A    between atoms: _104  and  _106
REMARK   42  A    between atoms: _106  and  _107
REMARK   43  A    between atoms: _106  and  _109
REMARK   44  A    between atoms: _109  and  _110
REMARK   45  A    between atoms: _113  and  _115
REMARK   46  A    between atoms: _115  and  _116
REMARK   47  A    between atoms: _115  and  _118
REMARK   48  A    between atoms: _118  and  _119
REMARK   49  A    between atoms: _122  and  _124
REMARK   50  A    between atoms: _124  and  _125
REMARK   51  A    between atoms: _124  and  _127
REMARK   52  A    between atoms: _127  and  _128
REMARK   53  A    between atoms: _131  and  _133
REMARK   54  A    between atoms: _133  and  _134
REMARK   55  A    between atoms: _133  and  _136
REMARK   56  A    between atoms: _136  and  _137
REMARK   57  A    between atoms: _139  and  _141
REMARK   58  A    between atoms: _141  and  _142
REMARK   59  A    between atoms: _144  and  _146
REMARK   60  A    between atoms: _146  and  _147
REMARK   61  A    between atoms: _149  and  _151
REMARK   62  A    between atoms: _151  and  _152
REMARK   63  A    between atoms: _151  and  _154
REMARK   64  A    between atoms: _154  and  _155
REMARK   65  A    between atoms: _160  and  _161
REMARK   66  A    between atoms: _163  and  _165
REMARK   67  A    between atoms: _165  and  _166
REMARK   68  A    between atoms: _165  and  _168
REMARK   69  A    between atoms: _168  and  _169
REMARK   70  A    between atoms: _169  and  _170
REMARK   71  A    between atoms: _175  and  _177
REMARK   72  A    between atoms: _177  and  _178
REMARK   73  A    between atoms: _177  and  _180
REMARK   74  A    between atoms: _183  and  _185
REMARK   75  A    between atoms: _185  and  _186
REMARK   76  A    between atoms: _185  and  _188
REMARK   77  A    between atoms: _188  and  _189
REMARK   78  A    between atoms: _189  and  _190
REMARK   79  A    between atoms: _192  and  _194
REMARK   80  A    between atoms: _194  and  _195
REMARK   81  A    between atoms: _194  and  _197
REMARK   82  A    between atoms: _197  and  _198
REMARK   83  A    between atoms: _200  and  _202
REMARK   84  A    between atoms: _202  and  _203
REMARK   85  A    between atoms: _202  and  _205
REMARK   86  A    between atoms: _205  and  _206
REMARK   87  A    between atoms: _209  and  _211
REMARK   88  A    between atoms: _211  and  _212
REMARK   89  A    between atoms: _211  and  _214
REMARK   90  A    between atoms: _214  and  _215
REMARK   91  A    between atoms: _215  and  _216
REMARK   92  A    between atoms: _221  and  _223
REMARK   93  A    between atoms: _223  and  _224
REMARK   94  A    between atoms: _223  and  _226
REMARK   95  A    between atoms: _226  and  _227
REMARK   96  A    between atoms: _227  and  _228
REMARK   97  A    between atoms: _230  and  _232
REMARK   98  A    between atoms: _232  and  _233
REMARK   99  A    between atoms: _236  and  _238
REMARK  100  A    between atoms: _238  and  _239
REMARK  101  A    between atoms: _238  and  _241
REMARK  102  A    between atoms: _241  and  _242
REMARK  103  A    between atoms: _248  and  _250
REMARK  104  A    between atoms: _250  and  _251
REMARK  105  A    between atoms: _250  and  _253
REMARK  106  A    between atoms: _253  and  _254
REMARK  107  A    between atoms: _257  and  _259
REMARK  108  A    between atoms: _259  and  _260
REMARK  109  A    between atoms: _259  and  _262
REMARK  110  A    between atoms: _262  and  _263
REMARK  111  A    between atoms: _263  and  _264
REMARK  112  A    between atoms: _267  and  _269
REMARK  113  A    between atoms: _269  and  _270
REMARK  114  A    between atoms: _269  and  _272
REMARK  115  A    between atoms: _274  and  _276
REMARK  116  A    between atoms: _276  and  _277
REMARK  117  A    between atoms: _276  and  _279
REMARK  118  A    between atoms: _279  and  _280
REMARK  119  A    between atoms: _283  and  _285
REMARK  120  A    between atoms: _285  and  _286
REMARK  121  A    between atoms: _285  and  _288
REMARK  122  A    between atoms: _288  and  _289
REMARK  123  A    between atoms: _291  and  _293
REMARK  124  A    between atoms: _293  and  _294
REMARK  125  A    between atoms: _293  and  _296
REMARK  126  A    between atoms: _296  and  _297
REMARK  127  A    between atoms: _300  and  _302
REMARK  128  A    between atoms: _302  and  _303
REMARK  129  A    between atoms: _302  and  _305
REMARK  130  A    between atoms: _305  and  _306
REMARK  131  A    between atoms: _306  and  _307
REMARK  132  A    between atoms: _312  and  _314
REMARK  133  A    between atoms: _314  and  _315
REMARK  134  A    between atoms: _314  and  _317
REMARK  135  A    between atoms: _317  and  _318
REMARK  136  A    between atoms: _318  and  _319
REMARK  137  A    between atoms: _324  and  _326
REMARK  138  A    between atoms: _326  and  _327
REMARK  139  A    between atoms: _329  and  _331
REMARK  140  A    between atoms: _331  and  _332
REMARK  141  A    between atoms: _331  and  _334
REMARK  142  A    between atoms: _334  and  _335
REMARK  143  A    between atoms: _337  and  _339
REMARK  144  A    between atoms: _339  and  _340
REMARK  145  A    between atoms: _339  and  _342
REMARK  146  A    between atoms: _342  and  _343
REMARK  147  A    between atoms: _343  and  _344
REMARK  148  A    between atoms: _344  and  _345
REMARK  149  A    between atoms: _354  and  _356
REMARK  150  A    between atoms: _356  and  _357
REMARK  151  A    between atoms: _360  and  _362
REMARK  152  A    between atoms: _362  and  _363
REMARK  153  A    between atoms: _362  and  _365
REMARK  154  A    between atoms: _368  and  _370
REMARK  155  A    between atoms: _370  and  _371
REMARK  156  A    between atoms: _373  and  _375
REMARK  157  A    between atoms: _375  and  _376
REMARK  158  A    between atoms: _378  and  _380
REMARK  159  A    between atoms: _380  and  _381
REMARK  160  A    between atoms: _380  and  _383
REMARK  161  A    between atoms: _383  and  _384
REMARK  162  A    between atoms: _387  and  _389
REMARK  163  A    between atoms: _389  and  _390
REMARK  164  A    between atoms: _393  and  _395
REMARK  165  A    between atoms: _395  and  _396
REMARK  166  A    between atoms: _395  and  _398
REMARK  167  A    between atoms: _401  and  _403
REMARK  168  A    between atoms: _403  and  _404
REMARK  169  A    between atoms: _406  and  _408
REMARK  170  A    between atoms: _408  and  _409
REMARK  171  A    between atoms: _408  and  _411
REMARK  172  A    between atoms: _411  and  _412
REMARK  173  A    between atoms: _412  and  _413
REMARK  174  A    between atoms: _416  and  _418
REMARK  175  A    between atoms: _418  and  _419
REMARK  176  A    between atoms: _418  and  _421
REMARK  177  A    between atoms: _421  and  _422
REMARK  178  A    between atoms: _427  and  _428
REMARK  179  A    between atoms: _430  and  _432
REMARK  180  A    between atoms: _432  and  _433
REMARK  181  A    between atoms: _432  and  _435
REMARK  182  A    between atoms: _435  and  _436
REMARK  183  A    between atoms: _439  and  _441
REMARK  184  A    between atoms: _441  and  _442
REMARK  185  A    between atoms: _441  and  _444
REMARK  186  A    between atoms: _444  and  _445
REMARK  187  A    between atoms: _445  and  _446
REMARK  188  A    between atoms: _448  and  _450
REMARK  189  A    between atoms: _450  and  _451
REMARK  190  A    between atoms: _453  and  _455
REMARK  191  A    between atoms: _455  and  _456
REMARK  192  A    between atoms: _455  and  _458
REMARK  193  A    between atoms: _461  and  _463
REMARK  194  A    between atoms: _463  and  _464
REMARK  195  A    between atoms: _466  and  _468
REMARK  196  A    between atoms: _468  and  _469
REMARK  197  A    between atoms: _468  and  _471
REMARK  198  A    between atoms: _471  and  _472
REMARK  199  A    between atoms: _478  and  _480
REMARK  200  A    between atoms: _480  and  _481
REMARK  201  A    between atoms: _480  and  _483
REMARK  202  A    between atoms: _483  and  _484
REMARK  203  A    between atoms: _487  and  _489
REMARK  204  A    between atoms: _489  and  _490
REMARK  205  A    between atoms: _489  and  _492
REMARK  206  A    between atoms: _494  and  _496
REMARK  207  A    between atoms: _496  and  _497
REMARK  208  A    between atoms: _496  and  _499
REMARK  209  A    between atoms: _502  and  _504
REMARK  210  A    between atoms: _504  and  _505
REMARK  211  A    between atoms: _504  and  _507
REMARK  212  A    between atoms: _507  and  _508
REMARK  213  A    between atoms: _511  and  _513
REMARK  214  A    between atoms: _513  and  _514
REMARK  215  A    between atoms: _513  and  _516
REMARK  216  A    between atoms: _516  and  _517
REMARK  217  A    between atoms: _517  and  _518
REMARK  218  A    between atoms: _518  and  _519
REMARK                            x       y       z     vdW  Elec       q    Type
REMARK                         _______ _______ _______ _____ _____    ______ ____
ROOT
ATOM      1  C   GLN A   2      15.246  15.457  97.760  0.00  0.00    +0.241 C 
ATOM      2  N   GLN A   3      15.622  16.473  98.533  0.00  0.00    -0.297 N 
ATOM      3  H   GLN A   3      15.752  16.313  99.552  0.00  0.00    +0.150 HD
ATOM      4  O   GLN A   2      14.948  15.591  96.571  0.00  0.00    -0.273 OA
ENDROOT
BRANCH   2   5
ATOM      5  CA  GLN A   3      15.857  17.807  97.987  0.00  0.00    +0.149 C 
BRANCH   5   6
ATOM      6  C   GLN A   3      17.293  18.222  98.309  0.00  0.00    +0.241 C 
ATOM      7  O   GLN A   3      18.130  17.357  98.589  0.00  0.00    -0.273 OA
ATOM      8  N   GLY A   4      17.594  19.519  98.241  0.00  0.00    -0.295 N 
ATOM      9  H   GLY A   4      16.842  20.214  98.057  0.00  0.00    +0.150 HD
BRANCH   8  10
ATOM     10  CA  GLY A   4      18.964  19.971  98.422  0.00  0.00    +0.176 C 
BRANCH  10  11
ATOM     11  C   GLY A   4      19.611  20.629  97.216  0.00  0.00    +0.243 C 
ATOM     12  O   GLY A   4      20.811  20.921  97.241  0.00  0.00    -0.273 OA
ATOM     13  N   SER A   5      18.821  20.882  96.173  0.00  0.00    -0.296 N 
ATOM     14  H   SER A   5      17.828  20.575  96.207  0.00  0.00    +0.150 HD
BRANCH  13  15
ATOM     15  CA  SER A   5      19.307  21.576  94.986  0.00  0.00    +0.166 C 
BRANCH  15  16
ATOM     16  C   SER A   5      20.527  20.839  94.417  0.00  0.00    +0.229 C 
ATOM     17  O   SER A   5      20.479  19.615  94.265  0.00  0.00    -0.286 OA
ENDBRANCH  15  16
BRANCH  15  18
ATOM     18  CB  SER A   5      19.593  23.053  95.303  0.00  0.00    +0.165 C 
BRANCH  18  19
ATOM     19  OG  SER A   5      19.965  23.774  94.139  0.00  0.00    -0.380 OA
ATOM     20  H   SER A   5      19.230  23.732  93.477  0.00  0.00    +0.211 HD
ENDBRANCH  18  19
ENDBRANCH  15  18
ENDBRANCH  13  15
ENDBRANCH  10  11
ENDBRANCH   8  10
ENDBRANCH   5   6
BRANCH   5  21
ATOM     21  CB  GLN A   3      14.814  18.805  98.509  0.00  0.00    +0.039 C 
BRANCH  21  22
ATOM     22  CG  GLN A   3      13.376  18.453  98.076  0.00  0.00    +0.087 C 
BRANCH  22  23
ATOM     23  CD  GLN A   3      13.100  18.709  96.593  0.00  0.00    +0.219 C 
ATOM     24  NE2 GLN A   3      12.033  18.101  96.079  0.00  0.00    -0.329 N 
ATOM     25 HE21 GLN A   3      11.445  17.487  96.678  0.00  0.00    +0.145 HD
ATOM     26 HE22 GLN A   3      11.787  18.240  95.078  0.00  0.00    +0.145 HD
ATOM     27  OE1 GLN A   3      13.826  19.445  95.924  0.00  0.00    -0.275 OA
ENDBRANCH  22  23
ENDBRANCH  21  22
ENDBRANCH   5  21
ENDBRANCH   2   5
BRANCH   1  28
ATOM     28  CA  GLN A   2      15.189  14.087  98.425  0.00  0.00    +0.149 C 
BRANCH  28  31
ATOM     29  C   ILE A   1      12.778  13.739  98.567  0.00  0.00    +0.238 C 
ATOM     30  O   ILE A   1      12.644  14.626  99.417  0.00  0.00    -0.274 OA
ATOM     31  N   GLN A   2      13.957  13.391  98.056  0.00  0.00    -0.297 N 
ATOM     32  H   GLN A   2      14.003  12.604  97.377  0.00  0.00    +0.150 HD
BRANCH  29  33
ATOM     33  CA  ILE A   1      11.576  12.956  98.055  0.00  0.00    +0.145 C 
BRANCH  33  34
ATOM     34  CB  ILE A   1      10.602  13.930  97.348  0.00  0.00    +0.025 C 
ATOM     35  CG2 ILE A   1      11.321  14.629  96.188  0.00  0.00    +0.002 C 
BRANCH  34  36
ATOM     36  CG1 ILE A   1       9.342  13.188  96.874  0.00  0.00    +0.002 C 
ATOM     37  CD1 ILE A   1       8.254  14.095  96.311  0.00  0.00    +0.000 C 
ENDBRANCH  34  36
ENDBRANCH  33  34
BRANCH  33  38
ATOM     38  N   ILE A   1      10.931  12.208  99.130  0.00  0.00    -0.238 NA
ATOM     39  H   ILE A   1      10.577  12.720  99.963  0.00  0.00    +0.142 HD
ENDBRANCH  33  38
ENDBRANCH  29  33
ENDBRANCH  28  31
BRANCH  28  40
ATOM     40  CB  GLN A   2      16.401  13.255  98.001  0.00  0.00    +0.039 C 
BRANCH  40  41
ATOM     41  CG  GLN A   2      17.753  13.831  98.404  0.00  0.00    +0.087 C 
BRANCH  41  42
ATOM     42  CD  GLN A   2      18.885  13.273  97.552  0.00  0.00    +0.219 C 
ATOM     43  NE2 GLN A   2      20.007  12.930  98.189  0.00  0.00    -0.329 N 
ATOM     44 HE21 GLN A   2      20.077  13.048  99.220  0.00  0.00    +0.145 HD
ATOM     45 HE22 GLN A   2      20.811  12.545  97.654  0.00  0.00    +0.145 HD
ATOM     46  OE1 GLN A   2      18.752  13.153  96.334  0.00  0.00    -0.275 OA
ENDBRANCH  41  42
ENDBRANCH  40  41
ENDBRANCH  28  40
ENDBRANCH   1  28
TORSDOF 20
REMARK  Name = ../refined-set-2016/4leq/4leq_pocket.pdb
REMARK  218 active torsions:
REMARK  status: ('A' for Active; 'I' for Inactive)
REMARK    1  A    between atoms: _1  and  _3
REMARK    2  A    between atoms: _3  and  _4
REMARK    3  A    between atoms: _3  and  _6
REMARK    4  A    between atoms: _6  and  _7
REMARK    5  A    between atoms: _7  and  _8
REMARK    6  A    between atoms: _11  and  _12
REMARK    7  A    between atoms: _17  and  _19
REMARK    8  A    between atoms: _19  and  _20
REMARK    9  A    between atoms: _19  and  _22
REMARK   10  A    between atoms: _25  and  _27
REMARK   11  A    between atoms: _27  and  _28
REMARK   12  A    between atoms: _30  and  _32
REMARK   13  A    between atoms: _32  and  _33
REMARK   14  A    between atoms: _32  and  _35
REMARK   15  A    between atoms: _35  and  _36
REMARK   16  A    between atoms: _39  and  _41
REMARK   17  A    between atoms: _41  and  _42
REMARK   18  A    between atoms: _45  and  _47
REMARK   19  A    between atoms: _47  and  _48
REMARK   20  A    between atoms: _47  and  _50
REMARK   21  A    between atoms: _50  and  _51
REMARK   22  A    between atoms: _54  and  _56
REMARK   23  A    between atoms: _56  and  _57
REMARK   24  A    between atoms: _59  and  _61
REMARK   25  A    between atoms: _61  and  _62
REMARK   26  A    between atoms: _61  and  _64
REMARK   27  A    between atoms: _64  and  _65
REMARK   28  A    between atoms: _70  and  _72
REMARK   29  A    between atoms: _72  and  _73
REMARK   30  A    between atoms: _72  and  _75
REMARK   31  A    between atoms: _75  and  _76
REMARK   32  A    between atoms: _79  and  _81
REMARK   33  A    between atoms: _81  and  _82
REMARK   34  A    between atoms: _81  and  _84
REMARK   35  A    between atoms: _84  and  _85
REMARK   36  A    between atoms: _90  and  _91
REMARK   37  A    between atoms: _93  and  _95
REMARK   38  A    between atoms: _95  and  _96
REMARK   39  A    between atoms: _95  and  _98
REMARK   40  A    between atoms: _98  and  _99
REMARK   41  A    between atoms: _104  and  _106
REMARK   42  A    between atoms: _106  and  _107
REMARK   43  A    between atoms: _106  and  _109
REMARK   44  A    between atoms: _109  and  _110
REMARK   45  A    between atoms: _113  and  _115
REMARK   46  A    between atoms: _115  and  _116
REMARK   47  A    between atoms: _115  and  _118
REMARK   48  A    between atoms: _118  and  _119
REMARK   49  A    between atoms: _122  and  _124
REMARK   50  A    between atoms: _124  and  _125
REMARK   51  A    between atoms: _124  and  _127
REMARK   52  A    between atoms: _127  and  _128
REMARK   53  A    between atoms: _131  and  _133
REMARK   54  A    between atoms: _133  and  _134
REMARK   55  A    between atoms: _133  and  _136
REMARK   56  A    between atoms: _136  and  _137
REMARK   57  A    between atoms: _139  and  _141
REMARK   58  A    between atoms: _141  and  _142
REMARK   59  A    between atoms: _144  and  _146
REMARK   60  A    between atoms: _146  and  _147
REMARK   61  A    between atoms: _149  and  _151
REMARK   62  A    between atoms: _151  and  _152
REMARK   63  A    between atoms: _151  and  _154
REMARK   64  A    between atoms: _154  and  _155
REMARK   65  A    between atoms: _160  and  _161
REMARK   66  A    between atoms: _163  and  _165
REMARK   67  A    between atoms: _165  and  _166
REMARK   68  A    between atoms: _165  and  _168
REMARK   69  A    between atoms: _168  and  _169
REMARK   70  A    between atoms: _169  and  _170
REMARK   71  A    between atoms: _175  and  _177
REMARK   72  A    between atoms: _177  and  _178
REMARK   73  A    between atoms: _177  and  _180
REMARK   74  A    between atoms: _183  and  _185
REMARK   75  A    between atoms: _185  and  _186
REMARK   76  A    between atoms: _185  and  _188
REMARK   77  A    between atoms: _188  and  _189
REMARK   78  A    between atoms: _189  and  _190
REMARK   79  A    between atoms: _192  and  _194
REMARK   80  A    between atoms: _194  and  _195
REMARK   81  A    between atoms: _194  and  _197
REMARK   82  A    between atoms: _197  and  _198
REMARK   83  A    between atoms: _200  and  _202
REMARK   84  A    between atoms: _202  and  _203
REMARK   85  A    between atoms: _202  and  _205
REMARK   86  A    between atoms: _205  and  _206
REMARK   87  A    between atoms: _209  and  _211
REMARK   88  A    between atoms: _211  and  _212
REMARK   89  A    between atoms: _211  and  _214
REMARK   90  A    between atoms: _214  and  _215
REMARK   91  A    between atoms: _215  and  _216
REMARK   92  A    between atoms: _221  and  _223
REMARK   93  A    between atoms: _223  and  _224
REMARK   94  A    between atoms: _223  and  _226
REMARK   95  A    between atoms: _226  and  _227
REMARK   96  A    between atoms: _227  and  _228
REMARK   97  A    between atoms: _230  and  _232
REMARK   98  A    between atoms: _232  and  _233
REMARK   99  A    between atoms: _236  and  _238
REMARK  100  A    between atoms: _238  and  _239
REMARK  101  A    between atoms: _238  and  _241
REMARK  102  A    between atoms: _241  and  _242
REMARK  103  A    between atoms: _248  and  _250
REMARK  104  A    between atoms: _250  and  _251
REMARK  105  A    between atoms: _250  and  _253
REMARK  106  A    between atoms: _253  and  _254
REMARK  107  A    between atoms: _257  and  _259
REMARK  108  A    between atoms: _259  and  _260
REMARK  109  A    between atoms: _259  and  _262
REMARK  110  A    between atoms: _262  and  _263
REMARK  111  A    between atoms: _263  and  _264
REMARK  112  A    between atoms: _267  and  _269
REMARK  113  A    between atoms: _269  and  _270
REMARK  114  A    between atoms: _269  and  _272
REMARK  115  A    between atoms: _274  and  _276
REMARK  116  A    between atoms: _276  and  _277
REMARK  117  A    between atoms: _276  and  _279
REMARK  118  A    between atoms: _279  and  _280
REMARK  119  A    between atoms: _283  and  _285
REMARK  120  A    between atoms: _285  and  _286
REMARK  121  A    between atoms: _285  and  _288
REMARK  122  A    between atoms: _288  and  _289
REMARK  123  A    between atoms: _291  and  _293
REMARK  124  A    between atoms: _293  and  _294
REMARK  125  A    between atoms: _293  and  _296
REMARK  126  A    between atoms: _296  and  _297
REMARK  127  A    between atoms: _300  and  _302
REMARK  128  A    between atoms: _302  and  _303
REMARK  129  A    between atoms: _302  and  _305
REMARK  130  A    between atoms: _305  and  _306
REMARK  131  A    between atoms: _306  and  _307
REMARK  132  A    between atoms: _312  and  _314
REMARK  133  A    between atoms: _314  and  _315
REMARK  134  A    between atoms: _314  and  _317
REMARK  135  A    between atoms: _317  and  _318
REMARK  136  A    between atoms: _318  and  _319
REMARK  137  A    between atoms: _324  and  _326
REMARK  138  A    between atoms: _326  and  _327
REMARK  139  A    between atoms: _329  and  _331
REMARK  140  A    between atoms: _331  and  _332
REMARK  141  A    between atoms: _331  and  _334
REMARK  142  A    between atoms: _334  and  _335
REMARK  143  A    between atoms: _337  and  _339
REMARK  144  A    between atoms: _339  and  _340
REMARK  145  A    between atoms: _339  and  _342
REMARK  146  A    between atoms: _342  and  _343
REMARK  147  A    between atoms: _343  and  _344
REMARK  148  A    between atoms: _344  and  _345
REMARK  149  A    between atoms: _354  and  _356
REMARK  150  A    between atoms: _356  and  _357
REMARK  151  A    between atoms: _360  and  _362
REMARK  152  A    between atoms: _362  and  _363
REMARK  153  A    between atoms: _362  and  _365
REMARK  154  A    between atoms: _368  and  _370
REMARK  155  A    between atoms: _370  and  _371
REMARK  156  A    between atoms: _373  and  _375
REMARK  157  A    between atoms: _375  and  _376
REMARK  158  A    between atoms: _378  and  _380
REMARK  159  A    between atoms: _380  and  _381
REMARK  160  A    between atoms: _380  and  _383
REMARK  161  A    between atoms: _383  and  _384
REMARK  162  A    between atoms: _387  and  _389
REMARK  163  A    between atoms: _389  and  _390
REMARK  164  A    between atoms: _393  and  _395
REMARK  165  A    between atoms: _395  and  _396
REMARK  166  A    between atoms: _395  and  _398
REMARK  167  A    between atoms: _401  and  _403
REMARK  168  A    between atoms: _403  and  _404
REMARK  169  A    between atoms: _406  and  _408
REMARK  170  A    between atoms: _408  and  _409
REMARK  171  A    between atoms: _408  and  _411
REMARK  172  A    between atoms: _411  and  _412
REMARK  173  A    between atoms: _412  and  _413
REMARK  174  A    between atoms: _416  and  _418
REMARK  175  A    between atoms: _418  and  _419
REMARK  176  A    between atoms: _418  and  _421
REMARK  177  A    between atoms: _421  and  _422
REMARK  178  A    between atoms: _427  and  _428
REMARK  179  A    between atoms: _430  and  _432
REMARK  180  A    between atoms: _432  and  _433
REMARK  181  A    between atoms: _432  and  _435
REMARK  182  A    between atoms: _435  and  _436
REMARK  183  A    between atoms: _439  and  _441
REMARK  184  A    between atoms: _441  and  _442
REMARK  185  A    between atoms: _441  and  _444
REMARK  186  A    between atoms: _444  and  _445
REMARK  187  A    between atoms: _445  and  _446
REMARK  188  A    between atoms: _448  and  _450
REMARK  189  A    between atoms: _450  and  _451
REMARK  190  A    between atoms: _453  and  _455
REMARK  191  A    between atoms: _455  and  _456
REMARK  192  A    between atoms: _455  and  _458
REMARK  193  A    between atoms: _461  and  _463
REMARK  194  A    between atoms: _463  and  _464
REMARK  195  A    between atoms: _466  and  _468
REMARK  196  A    between atoms: _468  and  _469
REMARK  197  A    between atoms: _468  and  _471
REMARK  198  A    between atoms: _471  and  _472
REMARK  199  A    between atoms: _478  and  _480
REMARK  200  A    between atoms: _480  and  _481
REMARK  201  A    between atoms: _480  and  _483
REMARK  202  A    between atoms: _483  and  _484
REMARK  203  A    between atoms: _487  and  _489
REMARK  204  A    between atoms: _489  and  _490
REMARK  205  A    between atoms: _489  and  _492
REMARK  206  A    between atoms: _494  and  _496
REMARK  207  A    between atoms: _496  and  _497
REMARK  208  A    between atoms: _496  and  _499
REMARK  209  A    between atoms: _502  and  _504
REMARK  210  A    between atoms: _504  and  _505
REMARK  211  A    between atoms: _504  and  _507
REMARK  212  A    between atoms: _507  and  _508
REMARK  213  A    between atoms: _511  and  _513
REMARK  214  A    between atoms: _513  and  _514
REMARK  215  A    between atoms: _513  and  _516
REMARK  216  A    between atoms: _516  and  _517
REMARK  217  A    between atoms: _517  and  _518
REMARK  218  A    between atoms: _518  and  _519
REMARK                            x       y       z     vdW  Elec       q    Type
REMARK                         _______ _______ _______ _____ _____    ______ ____
ROOT
ATOM      1  NE  ARG A   1      19.765  17.120  95.510  0.00  0.00    -0.265 N 
ATOM      2  HE  ARG A   1      20.312  17.967  95.254  0.00  0.00    +0.259 HD
ATOM      3  CZ  ARG A   1      18.580  16.946  94.929  0.00  0.00    +0.342 C 
ATOM      4  NH2 ARG A   1      17.858  15.866  95.192  0.00  0.00    -0.292 N 
ATOM      5 HH21 ARG A   1      18.217  15.150  95.855  0.00  0.00    +0.255 HD
ATOM      6 HH22 ARG A   1      16.933  15.735  94.735  0.00  0.00    +0.255 HD
ATOM      7  NH1 ARG A   1      18.123  17.850  94.072  0.00  0.00    -0.292 N 
ATOM      8 HH11 ARG A   1      18.691  18.694  93.854  0.00  0.00    +0.255 HD
ATOM      9 HH12 ARG A   1      17.197  17.715  93.618  0.00  0.00    +0.255 HD
ENDROOT
BRANCH   1  10
ATOM     10  CD  ARG A   1      20.349  16.199  96.484  0.00  0.00    +0.174 C 
BRANCH  10  11
ATOM     11  CG  ARG A   1      21.719  16.690  96.959  0.00  0.00    +0.045 C 
BRANCH  11  12
ATOM     12  CB  ARG A   1      22.247  15.858  98.129  0.00  0.00    +0.029 C 
BRANCH  12  13
ATOM     13  CA  ARG A   1      21.606  16.215  99.473  0.00  0.00    +0.133 C 
BRANCH  13  14
ATOM     14  N   ARG A   1      22.102  17.499  99.959  0.00  0.00    -0.239 NA
ATOM     15  H   ARG A   1      22.837  18.001  99.421  0.00  0.00    +0.142 HD
ENDBRANCH  13  14
BRANCH  13  16
ATOM     16  C   ARG A   1      21.847  15.111 100.502  0.00  0.00    +0.224 C 
ATOM     17  O   ARG A   1      20.975  14.270 100.728  0.00  0.00    -0.287 OA
ENDBRANCH  13  16
ENDBRANCH  12  13
ENDBRANCH  11  12
ENDBRANCH  10  11
ENDBRANCH   1  10
TORSDOF 6
REMARK  Name = ../refined-set-2016/4leq/4leq_pocket.pdb
REMARK  218 active torsions:
REMARK  status: ('A' for Active; 'I' for Inactive)
REMARK    1  A    between atoms: _1  and  _3
REMARK    2  A    between atoms: _3  and  _4
REMARK    3  A    between atoms: _3  and  _6
REMARK    4  A    between atoms: _6  and  _7
REMARK    5  A    between atoms: _7  and  _8
REMARK    6  A    between atoms: _11  and  _12
REMARK    7  A    between atoms: _17  and  _19
REMARK    8  A    between atoms: _19  and  _20
REMARK    9  A    between atoms: _19  and  _22
REMARK   10  A    between atoms: _25  and  _27
REMARK   11  A    between atoms: _27  and  _28
REMARK   12  A    between atoms: _30  and  _32
REMARK   13  A    between atoms: _32  and  _33
REMARK   14  A    between atoms: _32  and  _35
REMARK   15  A    between atoms: _35  and  _36
REMARK   16  A    between atoms: _39  and  _41
REMARK   17  A    between atoms: _41  and  _42
REMARK   18  A    between atoms: _45  and  _47
REMARK   19  A    between atoms: _47  and  _48
REMARK   20  A    between atoms: _47  and  _50
REMARK   21  A    between atoms: _50  and  _51
REMARK   22  A    between atoms: _54  and  _56
REMARK   23  A    between atoms: _56  and  _57
REMARK   24  A    between atoms: _59  and  _61
REMARK   25  A    between atoms: _61  and  _62
REMARK   26  A    between atoms: _61  and  _64
REMARK   27  A    between atoms: _64  and  _65
REMARK   28  A    between atoms: _70  and  _72
REMARK   29  A    between atoms: _72  and  _73
REMARK   30  A    between atoms: _72  and  _75
REMARK   31  A    between atoms: _75  and  _76
REMARK   32  A    between atoms: _79  and  _81
REMARK   33  A    between atoms: _81  and  _82
REMARK   34  A    between atoms: _81  and  _84
REMARK   35  A    between atoms: _84  and  _85
REMARK   36  A    between atoms: _90  and  _91
REMARK   37  A    between atoms: _93  and  _95
REMARK   38  A    between atoms: _95  and  _96
REMARK   39  A    between atoms: _95  and  _98
REMARK   40  A    between atoms: _98  and  _99
REMARK   41  A    between atoms: _104  and  _106
REMARK   42  A    between atoms: _106  and  _107
REMARK   43  A    between atoms: _106  and  _109
REMARK   44  A    between atoms: _109  and  _110
REMARK   45  A    between atoms: _113  and  _115
REMARK   46  A    between atoms: _115  and  _116
REMARK   47  A    between atoms: _115  and  _118
REMARK   48  A    between atoms: _118  and  _119
REMARK   49  A    between atoms: _122  and  _124
REMARK   50  A    between atoms: _124  and  _125
REMARK   51  A    between atoms: _124  and  _127
REMARK   52  A    between atoms: _127  and  _128
REMARK   53  A    between atoms: _131  and  _133
REMARK   54  A    between atoms: _133  and  _134
REMARK   55  A    between atoms: _133  and  _136
REMARK   56  A    between atoms: _136  and  _137
REMARK   57  A    between atoms: _139  and  _141
REMARK   58  A    between atoms: _141  and  _142
REMARK   59  A    between atoms: _144  and  _146
REMARK   60  A    between atoms: _146  and  _147
REMARK   61  A    between atoms: _149  and  _151
REMARK   62  A    between atoms: _151  and  _152
REMARK   63  A    between atoms: _151  and  _154
REMARK   64  A    between atoms: _154  and  _155
REMARK   65  A    between atoms: _160  and  _161
REMARK   66  A    between atoms: _163  and  _165
REMARK   67  A    between atoms: _165  and  _166
REMARK   68  A    between atoms: _165  and  _168
REMARK   69  A    between atoms: _168  and  _169
REMARK   70  A    between atoms: _169  and  _170
REMARK   71  A    between atoms: _175  and  _177
REMARK   72  A    between atoms: _177  and  _178
REMARK   73  A    between atoms: _177  and  _180
REMARK   74  A    between atoms: _183  and  _185
REMARK   75  A    between atoms: _185  and  _186
REMARK   76  A    between atoms: _185  and  _188
REMARK   77  A    between atoms: _188  and  _189
REMARK   78  A    between atoms: _189  and  _190
REMARK   79  A    between atoms: _192  and  _194
REMARK   80  A    between atoms: _194  and  _195
REMARK   81  A    between atoms: _194  and  _197
REMARK   82  A    between atoms: _197  and  _198
REMARK   83  A    between atoms: _200  and  _202
REMARK   84  A    between atoms: _202  and  _203
REMARK   85  A    between atoms: _202  and  _205
REMARK   86  A    between atoms: _205  and  _206
REMARK   87  A    between atoms: _209  and  _211
REMARK   88  A    between atoms: _211  and  _212
REMARK   89  A    between atoms: _211  and  _214
REMARK   90  A    between atoms: _214  and  _215
REMARK   91  A    between atoms: _215  and  _216
REMARK   92  A    between atoms: _221  and  _223
REMARK   93  A    between atoms: _223  and  _224
REMARK   94  A    between atoms: _223  and  _226
REMARK   95  A    between atoms: _226  and  _227
REMARK   96  A    between atoms: _227  and  _228
REMARK   97  A    between atoms: _230  and  _232
REMARK   98  A    between atoms: _232  and  _233
REMARK   99  A    between atoms: _236  and  _238
REMARK  100  A    between atoms: _238  and  _239
REMARK  101  A    between atoms: _238  and  _241
REMARK  102  A    between atoms: _241  and  _242
REMARK  103  A    between atoms: _248  and  _250
REMARK  104  A    between atoms: _250  and  _251
REMARK  105  A    between atoms: _250  and  _253
REMARK  106  A    between atoms: _253  and  _254
REMARK  107  A    between atoms: _257  and  _259
REMARK  108  A    between atoms: _259  and  _260
REMARK  109  A    between atoms: _259  and  _262
REMARK  110  A    between atoms: _262  and  _263
REMARK  111  A    between atoms: _263  and  _264
REMARK  112  A    between atoms: _267  and  _269
REMARK  113  A    between atoms: _269  and  _270
REMARK  114  A    between atoms: _269  and  _272
REMARK  115  A    between atoms: _274  and  _276
REMARK  116  A    between atoms: _276  and  _277
REMARK  117  A    between atoms: _276  and  _279
REMARK  118  A    between atoms: _279  and  _280
REMARK  119  A    between atoms: _283  and  _285
REMARK  120  A    between atoms: _285  and  _286
REMARK  121  A    between atoms: _285  and  _288
REMARK  122  A    between atoms: _288  and  _289
REMARK  123  A    between atoms: _291  and  _293
REMARK  124  A    between atoms: _293  and  _294
REMARK  125  A    between atoms: _293  and  _296
REMARK  126  A    between atoms: _296  and  _297
REMARK  127  A    between atoms: _300  and  _302
REMARK  128  A    between atoms: _302  and  _303
REMARK  129  A    between atoms: _302  and  _305
REMARK  130  A    between atoms: _305  and  _306
REMARK  131  A    between atoms: _306  and  _307
REMARK  132  A    between atoms: _312  and  _314
REMARK  133  A    between atoms: _314  and  _315
REMARK  134  A    between atoms: _314  and  _317
REMARK  135  A    between atoms: _317  and  _318
REMARK  136  A    between atoms: _318  and  _319
REMARK  137  A    between atoms: _324  and  _326
REMARK  138  A    between atoms: _326  and  _327
REMARK  139  A    between atoms: _329  and  _331
REMARK  140  A    between atoms: _331  and  _332
REMARK  141  A    between atoms: _331  and  _334
REMARK  142  A    between atoms: _334  and  _335
REMARK  143  A    between atoms: _337  and  _339
REMARK  144  A    between atoms: _339  and  _340
REMARK  145  A    between atoms: _339  and  _342
REMARK  146  A    between atoms: _342  and  _343
REMARK  147  A    between atoms: _343  and  _344
REMARK  148  A    between atoms: _344  and  _345
REMARK  149  A    between atoms: _354  and  _356
REMARK  150  A    between atoms: _356  and  _357
REMARK  151  A    between atoms: _360  and  _362
REMARK  152  A    between atoms: _362  and  _363
REMARK  153  A    between atoms: _362  and  _365
REMARK  154  A    between atoms: _368  and  _370
REMARK  155  A    between atoms: _370  and  _371
REMARK  156  A    between atoms: _373  and  _375
REMARK  157  A    between atoms: _375  and  _376
REMARK  158  A    between atoms: _378  and  _380
REMARK  159  A    between atoms: _380  and  _381
REMARK  160  A    between atoms: _380  and  _383
REMARK  161  A    between atoms: _383  and  _384
REMARK  162  A    between atoms: _387  and  _389
REMARK  163  A    between atoms: _389  and  _390
REMARK  164  A    between atoms: _393  and  _395
REMARK  165  A    between atoms: _395  and  _396
REMARK  166  A    between atoms: _395  and  _398
REMARK  167  A    between atoms: _401  and  _403
REMARK  168  A    between atoms: _403  and  _404
REMARK  169  A    between atoms: _406  and  _408
REMARK  170  A    between atoms: _408  and  _409
REMARK  171  A    between atoms: _408  and  _411
REMARK  172  A    between atoms: _411  and  _412
REMARK  173  A    between atoms: _412  and  _413
REMARK  174  A    between atoms: _416  and  _418
REMARK  175  A    between atoms: _418  and  _419
REMARK  176  A    between atoms: _418  and  _421
REMARK  177  A    between atoms: _421  and  _422
REMARK  178  A    between atoms: _427  and  _428
REMARK  179  A    between atoms: _430  and  _432
REMARK  180  A    between atoms: _432  and  _433
REMARK  181  A    between atoms: _432  and  _435
REMARK  182  A    between atoms: _435  and  _436
REMARK  183  A    between atoms: _439  and  _441
REMARK  184  A    between atoms: _441  and  _442
REMARK  185  A    between atoms: _441  and  _444
REMARK  186  A    between atoms: _444  and  _445
REMARK  187  A    between atoms: _445  and  _446
REMARK  188  A    between atoms: _448  and  _450
REMARK  189  A    between atoms: _450  and  _451
REMARK  190  A    between atoms: _453  and  _455
REMARK  191  A    between atoms: _455  and  _456
REMARK  192  A    between atoms: _455  and  _458
REMARK  193  A    between atoms: _461  and  _463
REMARK  194  A    between atoms: _463  and  _464
REMARK  195  A    between atoms: _466  and  _468
REMARK  196  A    between atoms: _468  and  _469
REMARK  197  A    between atoms: _468  and  _471
REMARK  198  A    between atoms: _471  and  _472
REMARK  199  A    between atoms: _478  and  _480
REMARK  200  A    between atoms: _480  and  _481
REMARK  201  A    between atoms: _480  and  _483
REMARK  202  A    between atoms: _483  and  _484
REMARK  203  A    between atoms: _487  and  _489
REMARK  204  A    between atoms: _489  and  _490
REMARK  205  A    between atoms: _489  and  _492
REMARK  206  A    between atoms: _494  and  _496
REMARK  207  A    between atoms: _496  and  _497
REMARK  208  A    between atoms: _496  and  _499
REMARK  209  A    between atoms: _502  and  _504
REMARK  210  A    between atoms: _504  and  _505
REMARK  211  A    between atoms: _504  and  _507
REMARK  212  A    between atoms: _507  and  _508
REMARK  213  A    between atoms: _511  and  _513
REMARK  214  A    between atoms: _513  and  _514
REMARK  215  A    between atoms: _513  and  _516
REMARK  216  A    between atoms: _516  and  _517
REMARK  217  A    between atoms: _517  and  _518
REMARK  218  A    between atoms: _518  and  _519
REMARK                            x       y       z     vdW  Elec       q    Type
REMARK                         _______ _______ _______ _____ _____    ______ ____
ROOT
ATOM      1  CA  LEU A   5      16.180  18.237  89.227  0.00  0.00    +0.149 C 
ENDROOT
BRANCH   1   4
ATOM      2  C   GLY A   4      15.503  19.216  91.356  0.00  0.00    +0.243 C 
ATOM      3  O   GLY A   4      16.318  20.136  91.239  0.00  0.00    -0.273 OA
ATOM      4  N   LEU A   5      15.391  18.235  90.460  0.00  0.00    -0.297 N 
ATOM      5  H   LEU A   5      14.730  17.453  90.641  0.00  0.00    +0.150 HD
BRANCH   2   6
ATOM      6  CA  GLY A   4      14.583  19.168  92.566  0.00  0.00    +0.176 C 
BRANCH   6   9
ATOM      7  C   GLY A   3      14.425  16.827  93.209  0.00  0.00    +0.243 C 
ATOM      8  O   GLY A   3      15.651  16.725  93.364  0.00  0.00    -0.273 OA
ATOM      9  N   GLY A   4      13.836  17.934  92.762  0.00  0.00    -0.295 N 
ATOM     10  H   GLY A   4      12.818  17.917  92.548  0.00  0.00    +0.150 HD
BRANCH   7  11
ATOM     11  CA  GLY A   3      13.509  15.663  93.532  0.00  0.00    +0.176 C 
BRANCH  11  13
ATOM     12  C   VAL A   2      14.626  13.559  93.104  0.00  0.00    +0.241 C 
ATOM     13  N   GLY A   3      14.265  14.506  93.962  0.00  0.00    -0.295 N 
ATOM     14  H   GLY A   3      14.531  14.415  94.963  0.00  0.00    +0.150 HD
ATOM     15  O   VAL A   2      14.265  13.547  91.920  0.00  0.00    -0.273 OA
BRANCH  12  16
ATOM     16  CA  VAL A   2      15.454  12.424  93.675  0.00  0.00    +0.148 C 
BRANCH  16  19
ATOM     17  C   ALA A   1      13.897  11.033  94.901  0.00  0.00    +0.238 C 
ATOM     18  O   ALA A   1      14.161  11.558  95.995  0.00  0.00    -0.274 OA
ATOM     19  N   VAL A   2      14.574  11.280  93.785  0.00  0.00    -0.297 N 
ATOM     20  H   VAL A   2      14.470  10.638  92.973  0.00  0.00    +0.150 HD
BRANCH  17  21
ATOM     21  CA  ALA A   1      12.778  10.012  94.771  0.00  0.00    +0.145 C 
ATOM     22  CB  ALA A   1      11.463  10.707  94.431  0.00  0.00    +0.028 C 
BRANCH  21  23
ATOM     23  N   ALA A   1      12.647   9.221  95.982  0.00  0.00    -0.238 NA
ATOM     24  H   ALA A   1      12.038   9.558  96.755  0.00  0.00    +0.142 HD
ENDBRANCH  21  23
ENDBRANCH  17  21
ENDBRANCH  16  19
BRANCH  16  25
ATOM     25  CB  VAL A   2      16.658  12.123  92.774  0.00  0.00    +0.027 C 
ATOM     26  CG2 VAL A   2      17.448  10.953  93.346  0.00  0.00    +0.002 C 
ATOM     27  CG1 VAL A   2      17.535  13.353  92.632  0.00  0.00    +0.002 C 
ENDBRANCH  16  25
ENDBRANCH  12  16
ENDBRANCH  11  13
ENDBRANCH   7  11
ENDBRANCH   6   9
ENDBRANCH   2   6
ENDBRANCH   1   4
BRANCH   1  28
ATOM     28  C   LEU A   5      15.247  18.315  88.016  0.00  0.00    +0.241 C 
ATOM     29  O   LEU A   5      14.026  18.391  88.181  0.00  0.00    -0.273 OA
ATOM     30  N   ALA A   6      15.810  18.312  86.808  0.00  0.00    -0.297 N 
ATOM     31  H   ALA A   6      16.830  18.126  86.721  0.00  0.00    +0.150 HD
BRANCH  30  32
ATOM     32  CA  ALA A   6      15.021  18.565  85.599  0.00  0.00    +0.149 C 
ATOM     33  CB  ALA A   6      14.101  17.370  85.274  0.00  0.00    +0.031 C 
BRANCH  32  34
ATOM     34  C   ALA A   6      14.224  19.866  85.742  0.00  0.00    +0.241 C 
ATOM     35  N   VAL A   7      14.912  20.903  86.215  0.00  0.00    -0.297 N 
ATOM     36  H   VAL A   7      15.912  20.768  86.466  0.00  0.00    +0.150 HD
ATOM     37  O   ALA A   6      13.022  19.927  85.443  0.00  0.00    -0.273 OA
BRANCH  35  38
ATOM     38  CA  VAL A   7      14.314  22.224  86.394  0.00  0.00    +0.149 C 
BRANCH  38  39
ATOM     39  C   VAL A   7      15.182  23.304  85.744  0.00  0.00    +0.241 C 
ATOM     40  O   VAL A   7      15.218  24.453  86.200  0.00  0.00    -0.273 OA
ATOM     41  N   GLY A   8      15.889  22.916  84.686  0.00  0.00    -0.295 N 
ATOM     42  H   GLY A   8      15.893  21.909  84.427  0.00  0.00    +0.150 HD
BRANCH  41  43
ATOM     43  CA  GLY A   8      16.655  23.851  83.881  0.00  0.00    +0.176 C 
BRANCH  43  44
ATOM     44  C   GLY A   8      18.160  23.808  84.075  0.00  0.00    +0.243 C 
ATOM     45  N   GLU A   9      18.639  22.856  84.870  0.00  0.00    -0.298 N 
ATOM     46  H   GLU A   9      17.988  22.148  85.266  0.00  0.00    +0.150 HD
ATOM     47  O   GLY A   8      18.879  24.627  83.501  0.00  0.00    -0.273 OA
BRANCH  45  48
ATOM     48  CA  GLU A   9      20.064  22.783  85.200  0.00  0.00    +0.137 C 
BRANCH  48  49
ATOM     49  C   GLU A   9      20.928  22.204  84.077  0.00  0.00    +0.227 C 
ATOM     50  O   GLU A   9      22.143  22.408  84.052  0.00  0.00    -0.286 OA
ENDBRANCH  48  49
BRANCH  48  51
ATOM     51  CB  GLU A   9      20.288  21.999  86.500  0.00  0.00    +0.039 C 
BRANCH  51  52
ATOM     52  CG  GLU A   9      20.119  20.480  86.383  0.00  0.00    +0.116 C 
BRANCH  52  53
ATOM     53  CD  GLU A   9      18.669  20.008  86.411  0.00  0.00    +0.365 C 
ATOM     54  OE2 GLU A   9      17.736  20.838  86.467  0.00  0.00    -0.246 OA
ATOM     55  OE1 GLU A   9      18.462  18.782  86.375  0.00  0.00    -0.246 OA
ENDBRANCH  52  53
ENDBRANCH  51  52
ENDBRANCH  48  51
ENDBRANCH  45  48
ENDBRANCH  43  44
ENDBRANCH  41  43
ENDBRANCH  38  39
BRANCH  38  56
ATOM     56  CB  VAL A   7      14.088  22.542  87.887  0.00  0.00    +0.027 C 
ATOM     57  CG2 VAL A   7      15.347  22.247  88.691  0.00  0.00    +0.002 C 
ATOM     58  CG1 VAL A   7      12.900  21.739  88.425  0.00  0.00    +0.002 C 
ENDBRANCH  38  56
ENDBRANCH  35  38
ENDBRANCH  32  34
ENDBRANCH  30  32
ENDBRANCH   1  28
BRANCH   1  59
ATOM     59  CB  LEU A   5      17.099  17.013  89.160  0.00  0.00    +0.029 C 
BRANCH  59  60
ATOM     60  CG  LEU A   5      18.195  16.988  90.235  0.00  0.00    +0.002 C 
ATOM     61  CD2 LEU A   5      19.015  15.711  90.145  0.00  0.00    +0.000 C 
ATOM     62  CD1 LEU A   5      19.116  18.195  90.108  0.00  0.00    +0.000 C 
ENDBRANCH  59  60
ENDBRANCH   1  59
TORSDOF 25
REMARK  Name = ../refined-set-2016/4leq/4leq_pocket.pdb
REMARK  218 active torsions:
REMARK  status: ('A' for Active; 'I' for Inactive)
REMARK    1  A    between atoms: _1  and  _3
REMARK    2  A    between atoms: _3  and  _4
REMARK    3  A    between atoms: _3  and  _6
REMARK    4  A    between atoms: _6  and  _7
REMARK    5  A    between atoms: _7  and  _8
REMARK    6  A    between atoms: _11  and  _12
REMARK    7  A    between atoms: _17  and  _19
REMARK    8  A    between atoms: _19  and  _20
REMARK    9  A    between atoms: _19  and  _22
REMARK   10  A    between atoms: _25  and  _27
REMARK   11  A    between atoms: _27  and  _28
REMARK   12  A    between atoms: _30  and  _32
REMARK   13  A    between atoms: _32  and  _33
REMARK   14  A    between atoms: _32  and  _35
REMARK   15  A    between atoms: _35  and  _36
REMARK   16  A    between atoms: _39  and  _41
REMARK   17  A    between atoms: _41  and  _42
REMARK   18  A    between atoms: _45  and  _47
REMARK   19  A    between atoms: _47  and  _48
REMARK   20  A    between atoms: _47  and  _50
REMARK   21  A    between atoms: _50  and  _51
REMARK   22  A    between atoms: _54  and  _56
REMARK   23  A    between atoms: _56  and  _57
REMARK   24  A    between atoms: _59  and  _61
REMARK   25  A    between atoms: _61  and  _62
REMARK   26  A    between atoms: _61  and  _64
REMARK   27  A    between atoms: _64  and  _65
REMARK   28  A    between atoms: _70  and  _72
REMARK   29  A    between atoms: _72  and  _73
REMARK   30  A    between atoms: _72  and  _75
REMARK   31  A    between atoms: _75  and  _76
REMARK   32  A    between atoms: _79  and  _81
REMARK   33  A    between atoms: _81  and  _82
REMARK   34  A    between atoms: _81  and  _84
REMARK   35  A    between atoms: _84  and  _85
REMARK   36  A    between atoms: _90  and  _91
REMARK   37  A    between atoms: _93  and  _95
REMARK   38  A    between atoms: _95  and  _96
REMARK   39  A    between atoms: _95  and  _98
REMARK   40  A    between atoms: _98  and  _99
REMARK   41  A    between atoms: _104  and  _106
REMARK   42  A    between atoms: _106  and  _107
REMARK   43  A    between atoms: _106  and  _109
REMARK   44  A    between atoms: _109  and  _110
REMARK   45  A    between atoms: _113  and  _115
REMARK   46  A    between atoms: _115  and  _116
REMARK   47  A    between atoms: _115  and  _118
REMARK   48  A    between atoms: _118  and  _119
REMARK   49  A    between atoms: _122  and  _124
REMARK   50  A    between atoms: _124  and  _125
REMARK   51  A    between atoms: _124  and  _127
REMARK   52  A    between atoms: _127  and  _128
REMARK   53  A    between atoms: _131  and  _133
REMARK   54  A    between atoms: _133  and  _134
REMARK   55  A    between atoms: _133  and  _136
REMARK   56  A    between atoms: _136  and  _137
REMARK   57  A    between atoms: _139  and  _141
REMARK   58  A    between atoms: _141  and  _142
REMARK   59  A    between atoms: _144  and  _146
REMARK   60  A    between atoms: _146  and  _147
REMARK   61  A    between atoms: _149  and  _151
REMARK   62  A    between atoms: _151  and  _152
REMARK   63  A    between atoms: _151  and  _154
REMARK   64  A    between atoms: _154  and  _155
REMARK   65  A    between atoms: _160  and  _161
REMARK   66  A    between atoms: _163  and  _165
REMARK   67  A    between atoms: _165  and  _166
REMARK   68  A    between atoms: _165  and  _168
REMARK   69  A    between atoms: _168  and  _169
REMARK   70  A    between atoms: _169  and  _170
REMARK   71  A    between atoms: _175  and  _177
REMARK   72  A    between atoms: _177  and  _178
REMARK   73  A    between atoms: _177  and  _180
REMARK   74  A    between atoms: _183  and  _185
REMARK   75  A    between atoms: _185  and  _186
REMARK   76  A    between atoms: _185  and  _188
REMARK   77  A    between atoms: _188  and  _189
REMARK   78  A    between atoms: _189  and  _190
REMARK   79  A    between atoms: _192  and  _194
REMARK   80  A    between atoms: _194  and  _195
REMARK   81  A    between atoms: _194  and  _197
REMARK   82  A    between atoms: _197  and  _198
REMARK   83  A    between atoms: _200  and  _202
REMARK   84  A    between atoms: _202  and  _203
REMARK   85  A    between atoms: _202  and  _205
REMARK   86  A    between atoms: _205  and  _206
REMARK   87  A    between atoms: _209  and  _211
REMARK   88  A    between atoms: _211  and  _212
REMARK   89  A    between atoms: _211  and  _214
REMARK   90  A    between atoms: _214  and  _215
REMARK   91  A    between atoms: _215  and  _216
REMARK   92  A    between atoms: _221  and  _223
REMARK   93  A    between atoms: _223  and  _224
REMARK   94  A    between atoms: _223  and  _226
REMARK   95  A    between atoms: _226  and  _227
REMARK   96  A    between atoms: _227  and  _228
REMARK   97  A    between atoms: _230  and  _232
REMARK   98  A    between atoms: _232  and  _233
REMARK   99  A    between atoms: _236  and  _238
REMARK  100  A    between atoms: _238  and  _239
REMARK  101  A    between atoms: _238  and  _241
REMARK  102  A    between atoms: _241  and  _242
REMARK  103  A    between atoms: _248  and  _250
REMARK  104  A    between atoms: _250  and  _251
REMARK  105  A    between atoms: _250  and  _253
REMARK  106  A    between atoms: _253  and  _254
REMARK  107  A    between atoms: _257  and  _259
REMARK  108  A    between atoms: _259  and  _260
REMARK  109  A    between atoms: _259  and  _262
REMARK  110  A    between atoms: _262  and  _263
REMARK  111  A    between atoms: _263  and  _264
REMARK  112  A    between atoms: _267  and  _269
REMARK  113  A    between atoms: _269  and  _270
REMARK  114  A    between atoms: _269  and  _272
REMARK  115  A    between atoms: _274  and  _276
REMARK  116  A    between atoms: _276  and  _277
REMARK  117  A    between atoms: _276  and  _279
REMARK  118  A    between atoms: _279  and  _280
REMARK  119  A    between atoms: _283  and  _285
REMARK  120  A    between atoms: _285  and  _286
REMARK  121  A    between atoms: _285  and  _288
REMARK  122  A    between atoms: _288  and  _289
REMARK  123  A    between atoms: _291  and  _293
REMARK  124  A    between atoms: _293  and  _294
REMARK  125  A    between atoms: _293  and  _296
REMARK  126  A    between atoms: _296  and  _297
REMARK  127  A    between atoms: _300  and  _302
REMARK  128  A    between atoms: _302  and  _303
REMARK  129  A    between atoms: _302  and  _305
REMARK  130  A    between atoms: _305  and  _306
REMARK  131  A    between atoms: _306  and  _307
REMARK  132  A    between atoms: _312  and  _314
REMARK  133  A    between atoms: _314  and  _315
REMARK  134  A    between atoms: _314  and  _317
REMARK  135  A    between atoms: _317  and  _318
REMARK  136  A    between atoms: _318  and  _319
REMARK  137  A    between atoms: _324  and  _326
REMARK  138  A    between atoms: _326  and  _327
REMARK  139  A    between atoms: _329  and  _331
REMARK  140  A    between atoms: _331  and  _332
REMARK  141  A    between atoms: _331  and  _334
REMARK  142  A    between atoms: _334  and  _335
REMARK  143  A    between atoms: _337  and  _339
REMARK  144  A    between atoms: _339  and  _340
REMARK  145  A    between atoms: _339  and  _342
REMARK  146  A    between atoms: _342  and  _343
REMARK  147  A    between atoms: _343  and  _344
REMARK  148  A    between atoms: _344  and  _345
REMARK  149  A    between atoms: _354  and  _356
REMARK  150  A    between atoms: _356  and  _357
REMARK  151  A    between atoms: _360  and  _362
REMARK  152  A    between atoms: _362  and  _363
REMARK  153  A    between atoms: _362  and  _365
REMARK  154  A    between atoms: _368  and  _370
REMARK  155  A    between atoms: _370  and  _371
REMARK  156  A    between atoms: _373  and  _375
REMARK  157  A    between atoms: _375  and  _376
REMARK  158  A    between atoms: _378  and  _380
REMARK  159  A    between atoms: _380  and  _381
REMARK  160  A    between atoms: _380  and  _383
REMARK  161  A    between atoms: _383  and  _384
REMARK  162  A    between atoms: _387  and  _389
REMARK  163  A    between atoms: _389  and  _390
REMARK  164  A    between atoms: _393  and  _395
REMARK  165  A    between atoms: _395  and  _396
REMARK  166  A    between atoms: _395  and  _398
REMARK  167  A    between atoms: _401  and  _403
REMARK  168  A    between atoms: _403  and  _404
REMARK  169  A    between atoms: _406  and  _408
REMARK  170  A    between atoms: _408  and  _409
REMARK  171  A    between atoms: _408  and  _411
REMARK  172  A    between atoms: _411  and  _412
REMARK  173  A    between atoms: _412  and  _413
REMARK  174  A    between atoms: _416  and  _418
REMARK  175  A    between atoms: _418  and  _419
REMARK  176  A    between atoms: _418  and  _421
REMARK  177  A    between atoms: _421  and  _422
REMARK  178  A    between atoms: _427  and  _428
REMARK  179  A    between atoms: _430  and  _432
REMARK  180  A    between atoms: _432  and  _433
REMARK  181  A    between atoms: _432  and  _435
REMARK  182  A    between atoms: _435  and  _436
REMARK  183  A    between atoms: _439  and  _441
REMARK  184  A    between atoms: _441  and  _442
REMARK  185  A    between atoms: _441  and  _444
REMARK  186  A    between atoms: _444  and  _445
REMARK  187  A    between atoms: _445  and  _446
REMARK  188  A    between atoms: _448  and  _450
REMARK  189  A    between atoms: _450  and  _451
REMARK  190  A    between atoms: _453  and  _455
REMARK  191  A    between atoms: _455  and  _456
REMARK  192  A    between atoms: _455  and  _458
REMARK  193  A    between atoms: _461  and  _463
REMARK  194  A    between atoms: _463  and  _464
REMARK  195  A    between atoms: _466  and  _468
REMARK  196  A    between atoms: _468  and  _469
REMARK  197  A    between atoms: _468  and  _471
REMARK  198  A    between atoms: _471  and  _472
REMARK  199  A    between atoms: _478  and  _480
REMARK  200  A    between atoms: _480  and  _481
REMARK  201  A    between atoms: _480  and  _483
REMARK  202  A    between atoms: _483  and  _484
REMARK  203  A    between atoms: _487  and  _489
REMARK  204  A    between atoms: _489  and  _490
REMARK  205  A    between atoms: _489  and  _492
REMARK  206  A    between atoms: _494  and  _496
REMARK  207  A    between atoms: _496  and  _497
REMARK  208  A    between atoms: _496  and  _499
REMARK  209  A    between atoms: _502  and  _504
REMARK  210  A    between atoms: _504  and  _505
REMARK  211  A    between atoms: _504  and  _507
REMARK  212  A    between atoms: _507  and  _508
REMARK  213  A    between atoms: _511  and  _513
REMARK  214  A    between atoms: _513  and  _514
REMARK  215  A    between atoms: _513  and  _516
REMARK  216  A    between atoms: _516  and  _517
REMARK  217  A    between atoms: _517  and  _518
REMARK  218  A    between atoms: _518  and  _519
REMARK                            x       y       z     vdW  Elec       q    Type
REMARK                         _______ _______ _______ _____ _____    ______ ____
ROOT
ATOM      1  C   LEU A   2      12.985  11.273  88.674  0.00  0.00    +0.241 C 
ATOM      2  N   MET A   3      12.470  12.264  89.392  0.00  0.00    -0.297 N 
ATOM      3  H   MET A   3      12.953  12.574  90.259  0.00  0.00    +0.150 HD
ATOM      4  O   LEU A   2      12.525  10.934  87.589  0.00  0.00    -0.273 OA
ENDROOT
BRANCH   2   5
ATOM      5  CA  MET A   3      11.232  12.926  88.980  0.00  0.00    +0.149 C 
BRANCH   5   6
ATOM      6  C   MET A   3      11.475  13.861  87.802  0.00  0.00    +0.241 C 
ATOM      7  O   MET A   3      12.391  14.681  87.817  0.00  0.00    -0.273 OA
ATOM      8  N   GLY A   4      10.662  13.708  86.764  0.00  0.00    -0.295 N 
ATOM      9  H   GLY A   4       9.999  12.907  86.756  0.00  0.00    +0.150 HD
BRANCH   8  10
ATOM     10  CA  GLY A   4      10.670  14.628  85.636  0.00  0.00    +0.176 C 
BRANCH  10  11
ATOM     11  C   GLY A   4      11.623  14.320  84.498  0.00  0.00    +0.243 C 
ATOM     12  N   VAL A   5      12.367  13.222  84.599  0.00  0.00    -0.297 N 
ATOM     13  H   VAL A   5      12.256  12.608  85.431  0.00  0.00    +0.150 HD
ATOM     14  O   GLY A   4      11.683  15.078  83.529  0.00  0.00    -0.273 OA
BRANCH  12  15
ATOM     15  CA  VAL A   5      13.339  12.856  83.567  0.00  0.00    +0.149 C 
BRANCH  15  16
ATOM     16  C   VAL A   5      12.795  11.709  82.713  0.00  0.00    +0.241 C 
ATOM     17  O   VAL A   5      12.251  10.757  83.253  0.00  0.00    -0.273 OA
ATOM     18  N   GLY A   6      12.904  11.792  81.387  0.00  0.00    -0.296 N 
ATOM     19  H   GLY A   6      12.543  10.995  80.825  0.00  0.00    +0.150 HD
BRANCH  18  20
ATOM     20  CA  GLY A   6      13.490  12.913  80.666  0.00  0.00    +0.163 C 
BRANCH  20  21
ATOM     21  C   GLY A   6      13.671  12.509  79.208  0.00  0.00    +0.229 C 
ATOM     22  O   GLY A   6      12.976  11.610  78.729  0.00  0.00    -0.286 OA
ENDBRANCH  20  21
ENDBRANCH  18  20
ENDBRANCH  15  16
BRANCH  15  23
ATOM     23  CB  VAL A   5      14.679  12.489  84.240  0.00  0.00    +0.027 C 
ATOM     24  CG2 VAL A   5      15.262  13.737  84.885  0.00  0.00    +0.002 C 
ATOM     25  CG1 VAL A   5      15.657  11.866  83.253  0.00  0.00    +0.002 C 
ENDBRANCH  15  23
ENDBRANCH  12  15
ENDBRANCH  10  11
ENDBRANCH   8  10
ENDBRANCH   5   6
BRANCH   5  26
ATOM     26  CB  MET A   3      10.618  13.695  90.158  0.00  0.00    +0.041 C 
BRANCH  26  27
ATOM     27  CG  MET A   3      10.541  12.851  91.430  0.00  0.00    +0.060 C 
BRANCH  27  28
ATOM     28  SD  MET A   3       9.510  13.594  92.707  0.00  0.00    -0.139 S 
ATOM     29  CE  MET A   3       7.877  13.288  92.016  0.00  0.00    +0.069 C 
ENDBRANCH  27  28
ENDBRANCH  26  27
ENDBRANCH   5  26
ENDBRANCH   2   5
BRANCH   1  30
ATOM     30  CA  LEU A   2      14.170  10.532  89.289  0.00  0.00    +0.149 C 
BRANCH  30  33
ATOM     31  C   TYR A   1      13.322   8.981  90.961  0.00  0.00    +0.239 C 
ATOM     32  O   TYR A   1      13.293   9.868  91.806  0.00  0.00    -0.274 OA
ATOM     33  N   LEU A   2      13.755   9.194  89.721  0.00  0.00    -0.297 N 
ATOM     34  H   LEU A   2      13.800   8.401  89.050  0.00  0.00    +0.150 HD
BRANCH  31  35
ATOM     35  CA  TYR A   1      12.868   7.560  91.308  0.00  0.00    +0.149 C 
BRANCH  35  36
ATOM     36  N   TYR A   1      13.769   6.995  92.312  0.00  0.00    -0.238 NA
ATOM     37  H   TYR A   1      13.817   7.437  93.252  0.00  0.00    +0.142 HD
ENDBRANCH  35  36
BRANCH  35  38
ATOM     38  CB  TYR A   1      11.431   7.519  91.861  0.00  0.00    +0.053 C 
BRANCH  38  39
ATOM     39  CG  TYR A   1      10.380   8.372  91.167  0.00  0.00    -0.020 A 
ATOM     40  CD2 TYR A   1       9.255   8.801  91.868  0.00  0.00    -0.001 A 
ATOM     41  CE2 TYR A   1       8.291   9.595  91.277  0.00  0.00    +0.036 A 
ATOM     42  CZ  TYR A   1       8.429   9.972  89.961  0.00  0.00    +0.134 A 
ATOM     43  CE1 TYR A   1       9.530   9.567  89.220  0.00  0.00    +0.036 A 
ATOM     44  CD1 TYR A   1      10.498   8.753  89.827  0.00  0.00    -0.001 A 
BRANCH  42  45
ATOM     45  OH  TYR A   1       7.462  10.766  89.408  0.00  0.00    -0.506 OA
ATOM     46  HH  TYR A   1       7.692  10.955  88.464  0.00  0.00    +0.292 HD
ENDBRANCH  42  45
ENDBRANCH  38  39
ENDBRANCH  35  38
ENDBRANCH  31  35
ENDBRANCH  30  33
BRANCH  30  47
ATOM     47  CB  LEU A   2      15.344  10.449  88.310  0.00  0.00    +0.029 C 
BRANCH  47  48
ATOM     48  CG  LEU A   2      15.917  11.773  87.803  0.00  0.00    +0.002 C 
ATOM     49  CD2 LEU A   2      16.295  12.708  88.956  0.00  0.00    +0.000 C 
ATOM     50  CD1 LEU A   2      17.120  11.491  86.912  0.00  0.00    +0.000 C 
ENDBRANCH  47  48
ENDBRANCH  30  47
ENDBRANCH   1  30
TORSDOF 21
REMARK  Name = ../refined-set-2016/4leq/4leq_pocket.pdb
REMARK  218 active torsions:
REMARK  status: ('A' for Active; 'I' for Inactive)
REMARK    1  A    between atoms: _1  and  _3
REMARK    2  A    between atoms: _3  and  _4
REMARK    3  A    between atoms: _3  and  _6
REMARK    4  A    between atoms: _6  and  _7
REMARK    5  A    between atoms: _7  and  _8
REMARK    6  A    between atoms: _11  and  _12
REMARK    7  A    between atoms: _17  and  _19
REMARK    8  A    between atoms: _19  and  _20
REMARK    9  A    between atoms: _19  and  _22
REMARK   10  A    between atoms: _25  and  _27
REMARK   11  A    between atoms: _27  and  _28
REMARK   12  A    between atoms: _30  and  _32
REMARK   13  A    between atoms: _32  and  _33
REMARK   14  A    between atoms: _32  and  _35
REMARK   15  A    between atoms: _35  and  _36
REMARK   16  A    between atoms: _39  and  _41
REMARK   17  A    between atoms: _41  and  _42
REMARK   18  A    between atoms: _45  and  _47
REMARK   19  A    between atoms: _47  and  _48
REMARK   20  A    between atoms: _47  and  _50
REMARK   21  A    between atoms: _50  and  _51
REMARK   22  A    between atoms: _54  and  _56
REMARK   23  A    between atoms: _56  and  _57
REMARK   24  A    between atoms: _59  and  _61
REMARK   25  A    between atoms: _61  and  _62
REMARK   26  A    between atoms: _61  and  _64
REMARK   27  A    between atoms: _64  and  _65
REMARK   28  A    between atoms: _70  and  _72
REMARK   29  A    between atoms: _72  and  _73
REMARK   30  A    between atoms: _72  and  _75
REMARK   31  A    between atoms: _75  and  _76
REMARK   32  A    between atoms: _79  and  _81
REMARK   33  A    between atoms: _81  and  _82
REMARK   34  A    between atoms: _81  and  _84
REMARK   35  A    between atoms: _84  and  _85
REMARK   36  A    between atoms: _90  and  _91
REMARK   37  A    between atoms: _93  and  _95
REMARK   38  A    between atoms: _95  and  _96
REMARK   39  A    between atoms: _95  and  _98
REMARK   40  A    between atoms: _98  and  _99
REMARK   41  A    between atoms: _104  and  _106
REMARK   42  A    between atoms: _106  and  _107
REMARK   43  A    between atoms: _106  and  _109
REMARK   44  A    between atoms: _109  and  _110
REMARK   45  A    between atoms: _113  and  _115
REMARK   46  A    between atoms: _115  and  _116
REMARK   47  A    between atoms: _115  and  _118
REMARK   48  A    between atoms: _118  and  _119
REMARK   49  A    between atoms: _122  and  _124
REMARK   50  A    between atoms: _124  and  _125
REMARK   51  A    between atoms: _124  and  _127
REMARK   52  A    between atoms: _127  and  _128
REMARK   53  A    between atoms: _131  and  _133
REMARK   54  A    between atoms: _133  and  _134
REMARK   55  A    between atoms: _133  and  _136
REMARK   56  A    between atoms: _136  and  _137
REMARK   57  A    between atoms: _139  and  _141
REMARK   58  A    between atoms: _141  and  _142
REMARK   59  A    between atoms: _144  and  _146
REMARK   60  A    between atoms: _146  and  _147
REMARK   61  A    between atoms: _149  and  _151
REMARK   62  A    between atoms: _151  and  _152
REMARK   63  A    between atoms: _151  and  _154
REMARK   64  A    between atoms: _154  and  _155
REMARK   65  A    between atoms: _160  and  _161
REMARK   66  A    between atoms: _163  and  _165
REMARK   67  A    between atoms: _165  and  _166
REMARK   68  A    between atoms: _165  and  _168
REMARK   69  A    between atoms: _168  and  _169
REMARK   70  A    between atoms: _169  and  _170
REMARK   71  A    between atoms: _175  and  _177
REMARK   72  A    between atoms: _177  and  _178
REMARK   73  A    between atoms: _177  and  _180
REMARK   74  A    between atoms: _183  and  _185
REMARK   75  A    between atoms: _185  and  _186
REMARK   76  A    between atoms: _185  and  _188
REMARK   77  A    between atoms: _188  and  _189
REMARK   78  A    between atoms: _189  and  _190
REMARK   79  A    between atoms: _192  and  _194
REMARK   80  A    between atoms: _194  and  _195
REMARK   81  A    between atoms: _194  and  _197
REMARK   82  A    between atoms: _197  and  _198
REMARK   83  A    between atoms: _200  and  _202
REMARK   84  A    between atoms: _202  and  _203
REMARK   85  A    between atoms: _202  and  _205
REMARK   86  A    between atoms: _205  and  _206
REMARK   87  A    between atoms: _209  and  _211
REMARK   88  A    between atoms: _211  and  _212
REMARK   89  A    between atoms: _211  and  _214
REMARK   90  A    between atoms: _214  and  _215
REMARK   91  A    between atoms: _215  and  _216
REMARK   92  A    between atoms: _221  and  _223
REMARK   93  A    between atoms: _223  and  _224
REMARK   94  A    between atoms: _223  and  _226
REMARK   95  A    between atoms: _226  and  _227
REMARK   96  A    between atoms: _227  and  _228
REMARK   97  A    between atoms: _230  and  _232
REMARK   98  A    between atoms: _232  and  _233
REMARK   99  A    between atoms: _236  and  _238
REMARK  100  A    between atoms: _238  and  _239
REMARK  101  A    between atoms: _238  and  _241
REMARK  102  A    between atoms: _241  and  _242
REMARK  103  A    between atoms: _248  and  _250
REMARK  104  A    between atoms: _250  and  _251
REMARK  105  A    between atoms: _250  and  _253
REMARK  106  A    between atoms: _253  and  _254
REMARK  107  A    between atoms: _257  and  _259
REMARK  108  A    between atoms: _259  and  _260
REMARK  109  A    between atoms: _259  and  _262
REMARK  110  A    between atoms: _262  and  _263
REMARK  111  A    between atoms: _263  and  _264
REMARK  112  A    between atoms: _267  and  _269
REMARK  113  A    between atoms: _269  and  _270
REMARK  114  A    between atoms: _269  and  _272
REMARK  115  A    between atoms: _274  and  _276
REMARK  116  A    between atoms: _276  and  _277
REMARK  117  A    between atoms: _276  and  _279
REMARK  118  A    between atoms: _279  and  _280
REMARK  119  A    between atoms: _283  and  _285
REMARK  120  A    between atoms: _285  and  _286
REMARK  121  A    between atoms: _285  and  _288
REMARK  122  A    between atoms: _288  and  _289
REMARK  123  A    between atoms: _291  and  _293
REMARK  124  A    between atoms: _293  and  _294
REMARK  125  A    between atoms: _293  and  _296
REMARK  126  A    between atoms: _296  and  _297
REMARK  127  A    between atoms: _300  and  _302
REMARK  128  A    between atoms: _302  and  _303
REMARK  129  A    between atoms: _302  and  _305
REMARK  130  A    between atoms: _305  and  _306
REMARK  131  A    between atoms: _306  and  _307
REMARK  132  A    between atoms: _312  and  _314
REMARK  133  A    between atoms: _314  and  _315
REMARK  134  A    between atoms: _314  and  _317
REMARK  135  A    between atoms: _317  and  _318
REMARK  136  A    between atoms: _318  and  _319
REMARK  137  A    between atoms: _324  and  _326
REMARK  138  A    between atoms: _326  and  _327
REMARK  139  A    between atoms: _329  and  _331
REMARK  140  A    between atoms: _331  and  _332
REMARK  141  A    between atoms: _331  and  _334
REMARK  142  A    between atoms: _334  and  _335
REMARK  143  A    between atoms: _337  and  _339
REMARK  144  A    between atoms: _339  and  _340
REMARK  145  A    between atoms: _339  and  _342
REMARK  146  A    between atoms: _342  and  _343
REMARK  147  A    between atoms: _343  and  _344
REMARK  148  A    between atoms: _344  and  _345
REMARK  149  A    between atoms: _354  and  _356
REMARK  150  A    between atoms: _356  and  _357
REMARK  151  A    between atoms: _360  and  _362
REMARK  152  A    between atoms: _362  and  _363
REMARK  153  A    between atoms: _362  and  _365
REMARK  154  A    between atoms: _368  and  _370
REMARK  155  A    between atoms: _370  and  _371
REMARK  156  A    between atoms: _373  and  _375
REMARK  157  A    between atoms: _375  and  _376
REMARK  158  A    between atoms: _378  and  _380
REMARK  159  A    between atoms: _380  and  _381
REMARK  160  A    between atoms: _380  and  _383
REMARK  161  A    between atoms: _383  and  _384
REMARK  162  A    between atoms: _387  and  _389
REMARK  163  A    between atoms: _389  and  _390
REMARK  164  A    between atoms: _393  and  _395
REMARK  165  A    between atoms: _395  and  _396
REMARK  166  A    between atoms: _395  and  _398
REMARK  167  A    between atoms: _401  and  _403
REMARK  168  A    between atoms: _403  and  _404
REMARK  169  A    between atoms: _406  and  _408
REMARK  170  A    between atoms: _408  and  _409
REMARK  171  A    between atoms: _408  and  _411
REMARK  172  A    between atoms: _411  and  _412
REMARK  173  A    between atoms: _412  and  _413
REMARK  174  A    between atoms: _416  and  _418
REMARK  175  A    between atoms: _418  and  _419
REMARK  176  A    between atoms: _418  and  _421
REMARK  177  A    between atoms: _421  and  _422
REMARK  178  A    between atoms: _427  and  _428
REMARK  179  A    between atoms: _430  and  _432
REMARK  180  A    between atoms: _432  and  _433
REMARK  181  A    between atoms: _432  and  _435
REMARK  182  A    between atoms: _435  and  _436
REMARK  183  A    between atoms: _439  and  _441
REMARK  184  A    between atoms: _441  and  _442
REMARK  185  A    between atoms: _441  and  _444
REMARK  186  A    between atoms: _444  and  _445
REMARK  187  A    between atoms: _445  and  _446
REMARK  188  A    between atoms: _448  and  _450
REMARK  189  A    between atoms: _450  and  _451
REMARK  190  A    between atoms: _453  and  _455
REMARK  191  A    between atoms: _455  and  _456
REMARK  192  A    between atoms: _455  and  _458
REMARK  193  A    between atoms: _461  and  _463
REMARK  194  A    between atoms: _463  and  _464
REMARK  195  A    between atoms: _466  and  _468
REMARK  196  A    between atoms: _468  and  _469
REMARK  197  A    between atoms: _468  and  _471
REMARK  198  A    between atoms: _471  and  _472
REMARK  199  A    between atoms: _478  and  _480
REMARK  200  A    between atoms: _480  and  _481
REMARK  201  A    between atoms: _480  and  _483
REMARK  202  A    between atoms: _483  and  _484
REMARK  203  A    between atoms: _487  and  _489
REMARK  204  A    between atoms: _489  and  _490
REMARK  205  A    between atoms: _489  and  _492
REMARK  206  A    between atoms: _494  and  _496
REMARK  207  A    between atoms: _496  and  _497
REMARK  208  A    between atoms: _496  and  _499
REMARK  209  A    between atoms: _502  and  _504
REMARK  210  A    between atoms: _504  and  _505
REMARK  211  A    between atoms: _504  and  _507
REMARK  212  A    between atoms: _507  and  _508
REMARK  213  A    between atoms: _511  and  _513
REMARK  214  A    between atoms: _513  and  _514
REMARK  215  A    between atoms: _513  and  _516
REMARK  216  A    between atoms: _516  and  _517
REMARK  217  A    between atoms: _517  and  _518
REMARK  218  A    between atoms: _518  and  _519
REMARK                            x       y       z     vdW  Elec       q    Type
REMARK                         _______ _______ _______ _____ _____    ______ ____
ROOT
ATOM      1  C   ASP A   2       8.642  11.364  83.827  0.00  0.00    +0.241 C 
ATOM      2  O   ASP A   2       9.565  12.082  84.210  0.00  0.00    -0.273 OA
ATOM      3  N   CYS A   3       7.928  11.620  82.736  0.00  0.00    -0.296 N 
ATOM      4  H   CYS A   3       7.204  10.939  82.430  0.00  0.00    +0.150 HD
ENDROOT
BRANCH   1   5
ATOM      5  CA  ASP A   2       8.262  10.127  84.611  0.00  0.00    +0.160 C 
BRANCH   5   7
ATOM      6  C   PHE A   1       9.735   8.294  85.302  0.00  0.00    +0.239 C 
ATOM      7  N   ASP A   2       9.479   9.603  85.241  0.00  0.00    -0.297 N 
ATOM      8  H   ASP A   2      10.162  10.271  85.652  0.00  0.00    +0.150 HD
ATOM      9  O   PHE A   1       8.892   7.427  85.050  0.00  0.00    -0.274 OA
BRANCH   6  10
ATOM     10  CA  PHE A   1      11.164   7.897  85.636  0.00  0.00    +0.149 C 
BRANCH  10  11
ATOM     11  N   PHE A   1      11.189   6.639  86.373  0.00  0.00    -0.238 NA
ATOM     12  H   PHE A   1      10.484   5.917  86.123  0.00  0.00    +0.142 HD
ENDBRANCH  10  11
BRANCH  10  13
ATOM     13  CB  PHE A   1      11.898   7.726  84.308  0.00  0.00    +0.053 C 
BRANCH  13  14
ATOM     14  CG  PHE A   1      13.346   7.385  84.450  0.00  0.00    -0.020 A 
ATOM     15  CD2 PHE A   1      14.294   8.387  84.570  0.00  0.00    -0.004 A 
ATOM     16  CE2 PHE A   1      15.642   8.085  84.680  0.00  0.00    -0.000 A 
ATOM     17  CZ  PHE A   1      16.052   6.763  84.684  0.00  0.00    -0.000 A 
ATOM     18  CE1 PHE A   1      15.112   5.747  84.573  0.00  0.00    -0.000 A 
ATOM     19  CD1 PHE A   1      13.764   6.059  84.448  0.00  0.00    -0.004 A 
ENDBRANCH  13  14
ENDBRANCH  10  13
ENDBRANCH   6  10
ENDBRANCH   5   7
BRANCH   5  20
ATOM     20  CB  ASP A   2       7.204  10.530  85.645  0.00  0.00    +0.143 C 
BRANCH  20  21
ATOM     21  CG  ASP A   2       7.489  11.890  86.263  0.00  0.00    +0.367 C 
ATOM     22  OD2 ASP A   2       8.326  11.961  87.197  0.00  0.00    -0.246 OA
ATOM     23  OD1 ASP A   2       6.908  12.899  85.794  0.00  0.00    -0.246 OA
ENDBRANCH  20  21
ENDBRANCH   5  20
ENDBRANCH   1   5
BRANCH   3  24
ATOM     24  CA  CYS A   3       8.137  12.835  81.959  0.00  0.00    +0.160 C 
BRANCH  24  25
ATOM     25  C   CYS A   3       6.981  13.038  80.983  0.00  0.00    +0.242 C 
ATOM     26  N   VAL A   4       6.579  14.282  80.744  0.00  0.00    -0.297 N 
ATOM     27  H   VAL A   4       6.990  15.071  81.283  0.00  0.00    +0.150 HD
ATOM     28  O   CYS A   3       6.513  12.053  80.400  0.00  0.00    -0.273 OA
BRANCH  26  29
ATOM     29  CA  VAL A   4       5.565  14.545  79.730  0.00  0.00    +0.149 C 
BRANCH  29  30
ATOM     30  C   VAL A   4       6.142  14.615  78.315  0.00  0.00    +0.241 C 
ATOM     31  N   LEU A   5       7.464  14.543  78.176  0.00  0.00    -0.298 N 
ATOM     32  H   LEU A   5       8.060  14.361  79.008  0.00  0.00    +0.150 HD
ATOM     33  O   VAL A   4       5.391  14.728  77.361  0.00  0.00    -0.273 OA
BRANCH  31  34
ATOM     34  CA  LEU A   5       8.087  14.718  76.862  0.00  0.00    +0.137 C 
BRANCH  34  35
ATOM     35  C   LEU A   5       7.501  13.837  75.737  0.00  0.00    +0.227 C 
ATOM     36  O   LEU A   5       7.130  14.364  74.689  0.00  0.00    -0.286 OA
ENDBRANCH  34  35
BRANCH  34  37
ATOM     37  CB  LEU A   5       9.613  14.587  76.946  0.00  0.00    +0.028 C 
BRANCH  37  38
ATOM     38  CG  LEU A   5      10.401  14.859  75.661  0.00  0.00    +0.002 C 
ATOM     39  CD2 LEU A   5      11.871  14.526  75.858  0.00  0.00    +0.000 C 
ATOM     40  CD1 LEU A   5      10.247  16.306  75.194  0.00  0.00    +0.000 C 
ENDBRANCH  37  38
ENDBRANCH  34  37
ENDBRANCH  31  34
ENDBRANCH  29  30
BRANCH  29  41
ATOM     41  CB  VAL A   4       4.765  15.847  80.006  0.00  0.00    +0.027 C 
ATOM     42  CG2 VAL A   4       4.054  15.767  81.352  0.00  0.00    +0.002 C 
ATOM     43  CG1 VAL A   4       5.656  17.092  79.893  0.00  0.00    +0.002 C 
ENDBRANCH  29  41
ENDBRANCH  26  29
ENDBRANCH  24  25
BRANCH  24  44
ATOM     44  CB  CYS A   3       9.442  12.705  81.170  0.00  0.00    +0.098 C 
ATOM     45  SG  CYS A   3      10.087  14.229  80.501  0.00  0.00    -0.080 S 
ENDBRANCH  24  44
ENDBRANCH   3  24
TORSDOF 18
REMARK  Name = ../refined-set-2016/4leq/4leq_pocket.pdb
REMARK  218 active torsions:
REMARK  status: ('A' for Active; 'I' for Inactive)
REMARK    1  A    between atoms: _1  and  _3
REMARK    2  A    between atoms: _3  and  _4
REMARK    3  A    between atoms: _3  and  _6
REMARK    4  A    between atoms: _6  and  _7
REMARK    5  A    between atoms: _7  and  _8
REMARK    6  A    between atoms: _11  and  _12
REMARK    7  A    between atoms: _17  and  _19
REMARK    8  A    between atoms: _19  and  _20
REMARK    9  A    between atoms: _19  and  _22
REMARK   10  A    between atoms: _25  and  _27
REMARK   11  A    between atoms: _27  and  _28
REMARK   12  A    between atoms: _30  and  _32
REMARK   13  A    between atoms: _32  and  _33
REMARK   14  A    between atoms: _32  and  _35
REMARK   15  A    between atoms: _35  and  _36
REMARK   16  A    between atoms: _39  and  _41
REMARK   17  A    between atoms: _41  and  _42
REMARK   18  A    between atoms: _45  and  _47
REMARK   19  A    between atoms: _47  and  _48
REMARK   20  A    between atoms: _47  and  _50
REMARK   21  A    between atoms: _50  and  _51
REMARK   22  A    between atoms: _54  and  _56
REMARK   23  A    between atoms: _56  and  _57
REMARK   24  A    between atoms: _59  and  _61
REMARK   25  A    between atoms: _61  and  _62
REMARK   26  A    between atoms: _61  and  _64
REMARK   27  A    between atoms: _64  and  _65
REMARK   28  A    between atoms: _70  and  _72
REMARK   29  A    between atoms: _72  and  _73
REMARK   30  A    between atoms: _72  and  _75
REMARK   31  A    between atoms: _75  and  _76
REMARK   32  A    between atoms: _79  and  _81
REMARK   33  A    between atoms: _81  and  _82
REMARK   34  A    between atoms: _81  and  _84
REMARK   35  A    between atoms: _84  and  _85
REMARK   36  A    between atoms: _90  and  _91
REMARK   37  A    between atoms: _93  and  _95
REMARK   38  A    between atoms: _95  and  _96
REMARK   39  A    between atoms: _95  and  _98
REMARK   40  A    between atoms: _98  and  _99
REMARK   41  A    between atoms: _104  and  _106
REMARK   42  A    between atoms: _106  and  _107
REMARK   43  A    between atoms: _106  and  _109
REMARK   44  A    between atoms: _109  and  _110
REMARK   45  A    between atoms: _113  and  _115
REMARK   46  A    between atoms: _115  and  _116
REMARK   47  A    between atoms: _115  and  _118
REMARK   48  A    between atoms: _118  and  _119
REMARK   49  A    between atoms: _122  and  _124
REMARK   50  A    between atoms: _124  and  _125
REMARK   51  A    between atoms: _124  and  _127
REMARK   52  A    between atoms: _127  and  _128
REMARK   53  A    between atoms: _131  and  _133
REMARK   54  A    between atoms: _133  and  _134
REMARK   55  A    between atoms: _133  and  _136
REMARK   56  A    between atoms: _136  and  _137
REMARK   57  A    between atoms: _139  and  _141
REMARK   58  A    between atoms: _141  and  _142
REMARK   59  A    between atoms: _144  and  _146
REMARK   60  A    between atoms: _146  and  _147
REMARK   61  A    between atoms: _149  and  _151
REMARK   62  A    between atoms: _151  and  _152
REMARK   63  A    between atoms: _151  and  _154
REMARK   64  A    between atoms: _154  and  _155
REMARK   65  A    between atoms: _160  and  _161
REMARK   66  A    between atoms: _163  and  _165
REMARK   67  A    between atoms: _165  and  _166
REMARK   68  A    between atoms: _165  and  _168
REMARK   69  A    between atoms: _168  and  _169
REMARK   70  A    between atoms: _169  and  _170
REMARK   71  A    between atoms: _175  and  _177
REMARK   72  A    between atoms: _177  and  _178
REMARK   73  A    between atoms: _177  and  _180
REMARK   74  A    between atoms: _183  and  _185
REMARK   75  A    between atoms: _185  and  _186
REMARK   76  A    between atoms: _185  and  _188
REMARK   77  A    between atoms: _188  and  _189
REMARK   78  A    between atoms: _189  and  _190
REMARK   79  A    between atoms: _192  and  _194
REMARK   80  A    between atoms: _194  and  _195
REMARK   81  A    between atoms: _194  and  _197
REMARK   82  A    between atoms: _197  and  _198
REMARK   83  A    between atoms: _200  and  _202
REMARK   84  A    between atoms: _202  and  _203
REMARK   85  A    between atoms: _202  and  _205
REMARK   86  A    between atoms: _205  and  _206
REMARK   87  A    between atoms: _209  and  _211
REMARK   88  A    between atoms: _211  and  _212
REMARK   89  A    between atoms: _211  and  _214
REMARK   90  A    between atoms: _214  and  _215
REMARK   91  A    between atoms: _215  and  _216
REMARK   92  A    between atoms: _221  and  _223
REMARK   93  A    between atoms: _223  and  _224
REMARK   94  A    between atoms: _223  and  _226
REMARK   95  A    between atoms: _226  and  _227
REMARK   96  A    between atoms: _227  and  _228
REMARK   97  A    between atoms: _230  and  _232
REMARK   98  A    between atoms: _232  and  _233
REMARK   99  A    between atoms: _236  and  _238
REMARK  100  A    between atoms: _238  and  _239
REMARK  101  A    between atoms: _238  and  _241
REMARK  102  A    between atoms: _241  and  _242
REMARK  103  A    between atoms: _248  and  _250
REMARK  104  A    between atoms: _250  and  _251
REMARK  105  A    between atoms: _250  and  _253
REMARK  106  A    between atoms: _253  and  _254
REMARK  107  A    between atoms: _257  and  _259
REMARK  108  A    between atoms: _259  and  _260
REMARK  109  A    between atoms: _259  and  _262
REMARK  110  A    between atoms: _262  and  _263
REMARK  111  A    between atoms: _263  and  _264
REMARK  112  A    between atoms: _267  and  _269
REMARK  113  A    between atoms: _269  and  _270
REMARK  114  A    between atoms: _269  and  _272
REMARK  115  A    between atoms: _274  and  _276
REMARK  116  A    between atoms: _276  and  _277
REMARK  117  A    between atoms: _276  and  _279
REMARK  118  A    between atoms: _279  and  _280
REMARK  119  A    between atoms: _283  and  _285
REMARK  120  A    between atoms: _285  and  _286
REMARK  121  A    between atoms: _285  and  _288
REMARK  122  A    between atoms: _288  and  _289
REMARK  123  A    between atoms: _291  and  _293
REMARK  124  A    between atoms: _293  and  _294
REMARK  125  A    between atoms: _293  and  _296
REMARK  126  A    between atoms: _296  and  _297
REMARK  127  A    between atoms: _300  and  _302
REMARK  128  A    between atoms: _302  and  _303
REMARK  129  A    between atoms: _302  and  _305
REMARK  130  A    between atoms: _305  and  _306
REMARK  131  A    between atoms: _306  and  _307
REMARK  132  A    between atoms: _312  and  _314
REMARK  133  A    between atoms: _314  and  _315
REMARK  134  A    between atoms: _314  and  _317
REMARK  135  A    between atoms: _317  and  _318
REMARK  136  A    between atoms: _318  and  _319
REMARK  137  A    between atoms: _324  and  _326
REMARK  138  A    between atoms: _326  and  _327
REMARK  139  A    between atoms: _329  and  _331
REMARK  140  A    between atoms: _331  and  _332
REMARK  141  A    between atoms: _331  and  _334
REMARK  142  A    between atoms: _334  and  _335
REMARK  143  A    between atoms: _337  and  _339
REMARK  144  A    between atoms: _339  and  _340
REMARK  145  A    between atoms: _339  and  _342
REMARK  146  A    between atoms: _342  and  _343
REMARK  147  A    between atoms: _343  and  _344
REMARK  148  A    between atoms: _344  and  _345
REMARK  149  A    between atoms: _354  and  _356
REMARK  150  A    between atoms: _356  and  _357
REMARK  151  A    between atoms: _360  and  _362
REMARK  152  A    between atoms: _362  and  _363
REMARK  153  A    between atoms: _362  and  _365
REMARK  154  A    between atoms: _368  and  _370
REMARK  155  A    between atoms: _370  and  _371
REMARK  156  A    between atoms: _373  and  _375
REMARK  157  A    between atoms: _375  and  _376
REMARK  158  A    between atoms: _378  and  _380
REMARK  159  A    between atoms: _380  and  _381
REMARK  160  A    between atoms: _380  and  _383
REMARK  161  A    between atoms: _383  and  _384
REMARK  162  A    between atoms: _387  and  _389
REMARK  163  A    between atoms: _389  and  _390
REMARK  164  A    between atoms: _393  and  _395
REMARK  165  A    between atoms: _395  and  _396
REMARK  166  A    between atoms: _395  and  _398
REMARK  167  A    between atoms: _401  and  _403
REMARK  168  A    between atoms: _403  and  _404
REMARK  169  A    between atoms: _406  and  _408
REMARK  170  A    between atoms: _408  and  _409
REMARK  171  A    between atoms: _408  and  _411
REMARK  172  A    between atoms: _411  and  _412
REMARK  173  A    between atoms: _412  and  _413
REMARK  174  A    between atoms: _416  and  _418
REMARK  175  A    between atoms: _418  and  _419
REMARK  176  A    between atoms: _418  and  _421
REMARK  177  A    between atoms: _421  and  _422
REMARK  178  A    between atoms: _427  and  _428
REMARK  179  A    between atoms: _430  and  _432
REMARK  180  A    between atoms: _432  and  _433
REMARK  181  A    between atoms: _432  and  _435
REMARK  182  A    between atoms: _435  and  _436
REMARK  183  A    between atoms: _439  and  _441
REMARK  184  A    between atoms: _441  and  _442
REMARK  185  A    between atoms: _441  and  _444
REMARK  186  A    between atoms: _444  and  _445
REMARK  187  A    between atoms: _445  and  _446
REMARK  188  A    between atoms: _448  and  _450
REMARK  189  A    between atoms: _450  and  _451
REMARK  190  A    between atoms: _453  and  _455
REMARK  191  A    between atoms: _455  and  _456
REMARK  192  A    between atoms: _455  and  _458
REMARK  193  A    between atoms: _461  and  _463
REMARK  194  A    between atoms: _463  and  _464
REMARK  195  A    between atoms: _466  and  _468
REMARK  196  A    between atoms: _468  and  _469
REMARK  197  A    between atoms: _468  and  _471
REMARK  198  A    between atoms: _471  and  _472
REMARK  199  A    between atoms: _478  and  _480
REMARK  200  A    between atoms: _480  and  _481
REMARK  201  A    between atoms: _480  and  _483
REMARK  202  A    between atoms: _483  and  _484
REMARK  203  A    between atoms: _487  and  _489
REMARK  204  A    between atoms: _489  and  _490
REMARK  205  A    between atoms: _489  and  _492
REMARK  206  A    between atoms: _494  and  _496
REMARK  207  A    between atoms: _496  and  _497
REMARK  208  A    between atoms: _496  and  _499
REMARK  209  A    between atoms: _502  and  _504
REMARK  210  A    between atoms: _504  and  _505
REMARK  211  A    between atoms: _504  and  _507
REMARK  212  A    between atoms: _507  and  _508
REMARK  213  A    between atoms: _511  and  _513
REMARK  214  A    between atoms: _513  and  _514
REMARK  215  A    between atoms: _513  and  _516
REMARK  216  A    between atoms: _516  and  _517
REMARK  217  A    between atoms: _517  and  _518
REMARK  218  A    between atoms: _518  and  _519
REMARK                            x       y       z     vdW  Elec       q    Type
REMARK                         _______ _______ _______ _____ _____    ______ ____
ROOT
ATOM      1  NE  ARG A   1       5.206  19.780  77.362  0.00  0.00    -0.265 N 
ATOM      2  CZ  ARG A   1       5.605  20.313  78.513  0.00  0.00    +0.342 C 
ATOM      3  NH2 ARG A   1       4.719  20.884  79.319  0.00  0.00    -0.292 N 
ATOM      4 HH21 ARG A   1       5.029  21.302  80.220  0.00  0.00    +0.255 HD
ATOM      5 HH22 ARG A   1       3.715  20.914  79.050  0.00  0.00    +0.255 HD
ATOM      6  NH1 ARG A   1       6.882  20.262  78.868  0.00  0.00    -0.292 N 
ATOM      7 HH11 ARG A   1       7.188  20.681  79.769  0.00  0.00    +0.255 HD
ATOM      8 HH12 ARG A   1       7.577  19.803  78.245  0.00  0.00    +0.255 HD
ATOM      9  HE  ARG A   1       5.920  19.326  76.757  0.00  0.00    +0.259 HD
ENDROOT
BRANCH   1  10
ATOM     10  CD  ARG A   1       3.825  19.797  76.902  0.00  0.00    +0.174 C 
BRANCH  10  11
ATOM     11  CG  ARG A   1       3.612  18.911  75.692  0.00  0.00    +0.045 C 
BRANCH  11  12
ATOM     12  CB  ARG A   1       3.868  17.440  76.009  0.00  0.00    +0.029 C 
BRANCH  12  13
ATOM     13  CA  ARG A   1       3.400  16.496  74.899  0.00  0.00    +0.133 C 
BRANCH  13  14
ATOM     14  N   ARG A   1       3.550  15.103  75.308  0.00  0.00    -0.239 NA
ATOM     15  H   ARG A   1       4.031  14.878  76.202  0.00  0.00    +0.142 HD
ENDBRANCH  13  14
BRANCH  13  16
ATOM     16  C   ARG A   1       4.138  16.793  73.592  0.00  0.00    +0.224 C 
ATOM     17  O   ARG A   1       3.571  17.384  72.663  0.00  0.00    -0.287 OA
ENDBRANCH  13  16
ENDBRANCH  12  13
ENDBRANCH  11  12
ENDBRANCH  10  11
ENDBRANCH   1  10
TORSDOF 6
REMARK  Name = ../refined-set-2016/4leq/4leq_pocket.pdb
REMARK  218 active torsions:
REMARK  status: ('A' for Active; 'I' for Inactive)
REMARK    1  A    between atoms: _1  and  _3
REMARK    2  A    between atoms: _3  and  _4
REMARK    3  A    between atoms: _3  and  _6
REMARK    4  A    between atoms: _6  and  _7
REMARK    5  A    between atoms: _7  and  _8
REMARK    6  A    between atoms: _11  and  _12
REMARK    7  A    between atoms: _17  and  _19
REMARK    8  A    between atoms: _19  and  _20
REMARK    9  A    between atoms: _19  and  _22
REMARK   10  A    between atoms: _25  and  _27
REMARK   11  A    between atoms: _27  and  _28
REMARK   12  A    between atoms: _30  and  _32
REMARK   13  A    between atoms: _32  and  _33
REMARK   14  A    between atoms: _32  and  _35
REMARK   15  A    between atoms: _35  and  _36
REMARK   16  A    between atoms: _39  and  _41
REMARK   17  A    between atoms: _41  and  _42
REMARK   18  A    between atoms: _45  and  _47
REMARK   19  A    between atoms: _47  and  _48
REMARK   20  A    between atoms: _47  and  _50
REMARK   21  A    between atoms: _50  and  _51
REMARK   22  A    between atoms: _54  and  _56
REMARK   23  A    between atoms: _56  and  _57
REMARK   24  A    between atoms: _59  and  _61
REMARK   25  A    between atoms: _61  and  _62
REMARK   26  A    between atoms: _61  and  _64
REMARK   27  A    between atoms: _64  and  _65
REMARK   28  A    between atoms: _70  and  _72
REMARK   29  A    between atoms: _72  and  _73
REMARK   30  A    between atoms: _72  and  _75
REMARK   31  A    between atoms: _75  and  _76
REMARK   32  A    between atoms: _79  and  _81
REMARK   33  A    between atoms: _81  and  _82
REMARK   34  A    between atoms: _81  and  _84
REMARK   35  A    between atoms: _84  and  _85
REMARK   36  A    between atoms: _90  and  _91
REMARK   37  A    between atoms: _93  and  _95
REMARK   38  A    between atoms: _95  and  _96
REMARK   39  A    between atoms: _95  and  _98
REMARK   40  A    between atoms: _98  and  _99
REMARK   41  A    between atoms: _104  and  _106
REMARK   42  A    between atoms: _106  and  _107
REMARK   43  A    between atoms: _106  and  _109
REMARK   44  A    between atoms: _109  and  _110
REMARK   45  A    between atoms: _113  and  _115
REMARK   46  A    between atoms: _115  and  _116
REMARK   47  A    between atoms: _115  and  _118
REMARK   48  A    between atoms: _118  and  _119
REMARK   49  A    between atoms: _122  and  _124
REMARK   50  A    between atoms: _124  and  _125
REMARK   51  A    between atoms: _124  and  _127
REMARK   52  A    between atoms: _127  and  _128
REMARK   53  A    between atoms: _131  and  _133
REMARK   54  A    between atoms: _133  and  _134
REMARK   55  A    between atoms: _133  and  _136
REMARK   56  A    between atoms: _136  and  _137
REMARK   57  A    between atoms: _139  and  _141
REMARK   58  A    between atoms: _141  and  _142
REMARK   59  A    between atoms: _144  and  _146
REMARK   60  A    between atoms: _146  and  _147
REMARK   61  A    between atoms: _149  and  _151
REMARK   62  A    between atoms: _151  and  _152
REMARK   63  A    between atoms: _151  and  _154
REMARK   64  A    between atoms: _154  and  _155
REMARK   65  A    between atoms: _160  and  _161
REMARK   66  A    between atoms: _163  and  _165
REMARK   67  A    between atoms: _165  and  _166
REMARK   68  A    between atoms: _165  and  _168
REMARK   69  A    between atoms: _168  and  _169
REMARK   70  A    between atoms: _169  and  _170
REMARK   71  A    between atoms: _175  and  _177
REMARK   72  A    between atoms: _177  and  _178
REMARK   73  A    between atoms: _177  and  _180
REMARK   74  A    between atoms: _183  and  _185
REMARK   75  A    between atoms: _185  and  _186
REMARK   76  A    between atoms: _185  and  _188
REMARK   77  A    between atoms: _188  and  _189
REMARK   78  A    between atoms: _189  and  _190
REMARK   79  A    between atoms: _192  and  _194
REMARK   80  A    between atoms: _194  and  _195
REMARK   81  A    between atoms: _194  and  _197
REMARK   82  A    between atoms: _197  and  _198
REMARK   83  A    between atoms: _200  and  _202
REMARK   84  A    between atoms: _202  and  _203
REMARK   85  A    between atoms: _202  and  _205
REMARK   86  A    between atoms: _205  and  _206
REMARK   87  A    between atoms: _209  and  _211
REMARK   88  A    between atoms: _211  and  _212
REMARK   89  A    between atoms: _211  and  _214
REMARK   90  A    between atoms: _214  and  _215
REMARK   91  A    between atoms: _215  and  _216
REMARK   92  A    between atoms: _221  and  _223
REMARK   93  A    between atoms: _223  and  _224
REMARK   94  A    between atoms: _223  and  _226
REMARK   95  A    between atoms: _226  and  _227
REMARK   96  A    between atoms: _227  and  _228
REMARK   97  A    between atoms: _230  and  _232
REMARK   98  A    between atoms: _232  and  _233
REMARK   99  A    between atoms: _236  and  _238
REMARK  100  A    between atoms: _238  and  _239
REMARK  101  A    between atoms: _238  and  _241
REMARK  102  A    between atoms: _241  and  _242
REMARK  103  A    between atoms: _248  and  _250
REMARK  104  A    between atoms: _250  and  _251
REMARK  105  A    between atoms: _250  and  _253
REMARK  106  A    between atoms: _253  and  _254
REMARK  107  A    between atoms: _257  and  _259
REMARK  108  A    between atoms: _259  and  _260
REMARK  109  A    between atoms: _259  and  _262
REMARK  110  A    between atoms: _262  and  _263
REMARK  111  A    between atoms: _263  and  _264
REMARK  112  A    between atoms: _267  and  _269
REMARK  113  A    between atoms: _269  and  _270
REMARK  114  A    between atoms: _269  and  _272
REMARK  115  A    between atoms: _274  and  _276
REMARK  116  A    between atoms: _276  and  _277
REMARK  117  A    between atoms: _276  and  _279
REMARK  118  A    between atoms: _279  and  _280
REMARK  119  A    between atoms: _283  and  _285
REMARK  120  A    between atoms: _285  and  _286
REMARK  121  A    between atoms: _285  and  _288
REMARK  122  A    between atoms: _288  and  _289
REMARK  123  A    between atoms: _291  and  _293
REMARK  124  A    between atoms: _293  and  _294
REMARK  125  A    between atoms: _293  and  _296
REMARK  126  A    between atoms: _296  and  _297
REMARK  127  A    between atoms: _300  and  _302
REMARK  128  A    between atoms: _302  and  _303
REMARK  129  A    between atoms: _302  and  _305
REMARK  130  A    between atoms: _305  and  _306
REMARK  131  A    between atoms: _306  and  _307
REMARK  132  A    between atoms: _312  and  _314
REMARK  133  A    between atoms: _314  and  _315
REMARK  134  A    between atoms: _314  and  _317
REMARK  135  A    between atoms: _317  and  _318
REMARK  136  A    between atoms: _318  and  _319
REMARK  137  A    between atoms: _324  and  _326
REMARK  138  A    between atoms: _326  and  _327
REMARK  139  A    between atoms: _329  and  _331
REMARK  140  A    between atoms: _331  and  _332
REMARK  141  A    between atoms: _331  and  _334
REMARK  142  A    between atoms: _334  and  _335
REMARK  143  A    between atoms: _337  and  _339
REMARK  144  A    between atoms: _339  and  _340
REMARK  145  A    between atoms: _339  and  _342
REMARK  146  A    between atoms: _342  and  _343
REMARK  147  A    between atoms: _343  and  _344
REMARK  148  A    between atoms: _344  and  _345
REMARK  149  A    between atoms: _354  and  _356
REMARK  150  A    between atoms: _356  and  _357
REMARK  151  A    between atoms: _360  and  _362
REMARK  152  A    between atoms: _362  and  _363
REMARK  153  A    between atoms: _362  and  _365
REMARK  154  A    between atoms: _368  and  _370
REMARK  155  A    between atoms: _370  and  _371
REMARK  156  A    between atoms: _373  and  _375
REMARK  157  A    between atoms: _375  and  _376
REMARK  158  A    between atoms: _378  and  _380
REMARK  159  A    between atoms: _380  and  _381
REMARK  160  A    between atoms: _380  and  _383
REMARK  161  A    between atoms: _383  and  _384
REMARK  162  A    between atoms: _387  and  _389
REMARK  163  A    between atoms: _389  and  _390
REMARK  164  A    between atoms: _393  and  _395
REMARK  165  A    between atoms: _395  and  _396
REMARK  166  A    between atoms: _395  and  _398
REMARK  167  A    between atoms: _401  and  _403
REMARK  168  A    between atoms: _403  and  _404
REMARK  169  A    between atoms: _406  and  _408
REMARK  170  A    between atoms: _408  and  _409
REMARK  171  A    between atoms: _408  and  _411
REMARK  172  A    between atoms: _411  and  _412
REMARK  173  A    between atoms: _412  and  _413
REMARK  174  A    between atoms: _416  and  _418
REMARK  175  A    between atoms: _418  and  _419
REMARK  176  A    between atoms: _418  and  _421
REMARK  177  A    between atoms: _421  and  _422
REMARK  178  A    between atoms: _427  and  _428
REMARK  179  A    between atoms: _430  and  _432
REMARK  180  A    between atoms: _432  and  _433
REMARK  181  A    between atoms: _432  and  _435
REMARK  182  A    between atoms: _435  and  _436
REMARK  183  A    between atoms: _439  and  _441
REMARK  184  A    between atoms: _441  and  _442
REMARK  185  A    between atoms: _441  and  _444
REMARK  186  A    between atoms: _444  and  _445
REMARK  187  A    between atoms: _445  and  _446
REMARK  188  A    between atoms: _448  and  _450
REMARK  189  A    between atoms: _450  and  _451
REMARK  190  A    between atoms: _453  and  _455
REMARK  191  A    between atoms: _455  and  _456
REMARK  192  A    between atoms: _455  and  _458
REMARK  193  A    between atoms: _461  and  _463
REMARK  194  A    between atoms: _463  and  _464
REMARK  195  A    between atoms: _466  and  _468
REMARK  196  A    between atoms: _468  and  _469
REMARK  197  A    between atoms: _468  and  _471
REMARK  198  A    between atoms: _471  and  _472
REMARK  199  A    between atoms: _478  and  _480
REMARK  200  A    between atoms: _480  and  _481
REMARK  201  A    between atoms: _480  and  _483
REMARK  202  A    between atoms: _483  and  _484
REMARK  203  A    between atoms: _487  and  _489
REMARK  204  A    between atoms: _489  and  _490
REMARK  205  A    between atoms: _489  and  _492
REMARK  206  A    between atoms: _494  and  _496
REMARK  207  A    between atoms: _496  and  _497
REMARK  208  A    between atoms: _496  and  _499
REMARK  209  A    between atoms: _502  and  _504
REMARK  210  A    between atoms: _504  and  _505
REMARK  211  A    between atoms: _504  and  _507
REMARK  212  A    between atoms: _507  and  _508
REMARK  213  A    between atoms: _511  and  _513
REMARK  214  A    between atoms: _513  and  _514
REMARK  215  A    between atoms: _513  and  _516
REMARK  216  A    between atoms: _516  and  _517
REMARK  217  A    between atoms: _517  and  _518
REMARK  218  A    between atoms: _518  and  _519
REMARK                            x       y       z     vdW  Elec       q    Type
REMARK                         _______ _______ _______ _____ _____    ______ ____
ROOT
ATOM      1  O   HOH     1      13.884  15.716  90.136  0.00  0.00    +0.000 OA
ENDROOT
TORSDOF 0
REMARK  Name = ../refined-set-2016/4leq/4leq_pocket.pdb
REMARK  218 active torsions:
REMARK  status: ('A' for Active; 'I' for Inactive)
REMARK    1  A    between atoms: _1  and  _3
REMARK    2  A    between atoms: _3  and  _4
REMARK    3  A    between atoms: _3  and  _6
REMARK    4  A    between atoms: _6  and  _7
REMARK    5  A    between atoms: _7  and  _8
REMARK    6  A    between atoms: _11  and  _12
REMARK    7  A    between atoms: _17  and  _19
REMARK    8  A    between atoms: _19  and  _20
REMARK    9  A    between atoms: _19  and  _22
REMARK   10  A    between atoms: _25  and  _27
REMARK   11  A    between atoms: _27  and  _28
REMARK   12  A    between atoms: _30  and  _32
REMARK   13  A    between atoms: _32  and  _33
REMARK   14  A    between atoms: _32  and  _35
REMARK   15  A    between atoms: _35  and  _36
REMARK   16  A    between atoms: _39  and  _41
REMARK   17  A    between atoms: _41  and  _42
REMARK   18  A    between atoms: _45  and  _47
REMARK   19  A    between atoms: _47  and  _48
REMARK   20  A    between atoms: _47  and  _50
REMARK   21  A    between atoms: _50  and  _51
REMARK   22  A    between atoms: _54  and  _56
REMARK   23  A    between atoms: _56  and  _57
REMARK   24  A    between atoms: _59  and  _61
REMARK   25  A    between atoms: _61  and  _62
REMARK   26  A    between atoms: _61  and  _64
REMARK   27  A    between atoms: _64  and  _65
REMARK   28  A    between atoms: _70  and  _72
REMARK   29  A    between atoms: _72  and  _73
REMARK   30  A    between atoms: _72  and  _75
REMARK   31  A    between atoms: _75  and  _76
REMARK   32  A    between atoms: _79  and  _81
REMARK   33  A    between atoms: _81  and  _82
REMARK   34  A    between atoms: _81  and  _84
REMARK   35  A    between atoms: _84  and  _85
REMARK   36  A    between atoms: _90  and  _91
REMARK   37  A    between atoms: _93  and  _95
REMARK   38  A    between atoms: _95  and  _96
REMARK   39  A    between atoms: _95  and  _98
REMARK   40  A    between atoms: _98  and  _99
REMARK   41  A    between atoms: _104  and  _106
REMARK   42  A    between atoms: _106  and  _107
REMARK   43  A    between atoms: _106  and  _109
REMARK   44  A    between atoms: _109  and  _110
REMARK   45  A    between atoms: _113  and  _115
REMARK   46  A    between atoms: _115  and  _116
REMARK   47  A    between atoms: _115  and  _118
REMARK   48  A    between atoms: _118  and  _119
REMARK   49  A    between atoms: _122  and  _124
REMARK   50  A    between atoms: _124  and  _125
REMARK   51  A    between atoms: _124  and  _127
REMARK   52  A    between atoms: _127  and  _128
REMARK   53  A    between atoms: _131  and  _133
REMARK   54  A    between atoms: _133  and  _134
REMARK   55  A    between atoms: _133  and  _136
REMARK   56  A    between atoms: _136  and  _137
REMARK   57  A    between atoms: _139  and  _141
REMARK   58  A    between atoms: _141  and  _142
REMARK   59  A    between atoms: _144  and  _146
REMARK   60  A    between atoms: _146  and  _147
REMARK   61  A    between atoms: _149  and  _151
REMARK   62  A    between atoms: _151  and  _152
REMARK   63  A    between atoms: _151  and  _154
REMARK   64  A    between atoms: _154  and  _155
REMARK   65  A    between atoms: _160  and  _161
REMARK   66  A    between atoms: _163  and  _165
REMARK   67  A    between atoms: _165  and  _166
REMARK   68  A    between atoms: _165  and  _168
REMARK   69  A    between atoms: _168  and  _169
REMARK   70  A    between atoms: _169  and  _170
REMARK   71  A    between atoms: _175  and  _177
REMARK   72  A    between atoms: _177  and  _178
REMARK   73  A    between atoms: _177  and  _180
REMARK   74  A    between atoms: _183  and  _185
REMARK   75  A    between atoms: _185  and  _186
REMARK   76  A    between atoms: _185  and  _188
REMARK   77  A    between atoms: _188  and  _189
REMARK   78  A    between atoms: _189  and  _190
REMARK   79  A    between atoms: _192  and  _194
REMARK   80  A    between atoms: _194  and  _195
REMARK   81  A    between atoms: _194  and  _197
REMARK   82  A    between atoms: _197  and  _198
REMARK   83  A    between atoms: _200  and  _202
REMARK   84  A    between atoms: _202  and  _203
REMARK   85  A    between atoms: _202  and  _205
REMARK   86  A    between atoms: _205  and  _206
REMARK   87  A    between atoms: _209  and  _211
REMARK   88  A    between atoms: _211  and  _212
REMARK   89  A    between atoms: _211  and  _214
REMARK   90  A    between atoms: _214  and  _215
REMARK   91  A    between atoms: _215  and  _216
REMARK   92  A    between atoms: _221  and  _223
REMARK   93  A    between atoms: _223  and  _224
REMARK   94  A    between atoms: _223  and  _226
REMARK   95  A    between atoms: _226  and  _227
REMARK   96  A    between atoms: _227  and  _228
REMARK   97  A    between atoms: _230  and  _232
REMARK   98  A    between atoms: _232  and  _233
REMARK   99  A    between atoms: _236  and  _238
REMARK  100  A    between atoms: _238  and  _239
REMARK  101  A    between atoms: _238  and  _241
REMARK  102  A    between atoms: _241  and  _242
REMARK  103  A    between atoms: _248  and  _250
REMARK  104  A    between atoms: _250  and  _251
REMARK  105  A    between atoms: _250  and  _253
REMARK  106  A    between atoms: _253  and  _254
REMARK  107  A    between atoms: _257  and  _259
REMARK  108  A    between atoms: _259  and  _260
REMARK  109  A    between atoms: _259  and  _262
REMARK  110  A    between atoms: _262  and  _263
REMARK  111  A    between atoms: _263  and  _264
REMARK  112  A    between atoms: _267  and  _269
REMARK  113  A    between atoms: _269  and  _270
REMARK  114  A    between atoms: _269  and  _272
REMARK  115  A    between atoms: _274  and  _276
REMARK  116  A    between atoms: _276  and  _277
REMARK  117  A    between atoms: _276  and  _279
REMARK  118  A    between atoms: _279  and  _280
REMARK  119  A    between atoms: _283  and  _285
REMARK  120  A    between atoms: _285  and  _286
REMARK  121  A    between atoms: _285  and  _288
REMARK  122  A    between atoms: _288  and  _289
REMARK  123  A    between atoms: _291  and  _293
REMARK  124  A    between atoms: _293  and  _294
REMARK  125  A    between atoms: _293  and  _296
REMARK  126  A    between atoms: _296  and  _297
REMARK  127  A    between atoms: _300  and  _302
REMARK  128  A    between atoms: _302  and  _303
REMARK  129  A    between atoms: _302  and  _305
REMARK  130  A    between atoms: _305  and  _306
REMARK  131  A    between atoms: _306  and  _307
REMARK  132  A    between atoms: _312  and  _314
REMARK  133  A    between atoms: _314  and  _315
REMARK  134  A    between atoms: _314  and  _317
REMARK  135  A    between atoms: _317  and  _318
REMARK  136  A    between atoms: _318  and  _319
REMARK  137  A    between atoms: _324  and  _326
REMARK  138  A    between atoms: _326  and  _327
REMARK  139  A    between atoms: _329  and  _331
REMARK  140  A    between atoms: _331  and  _332
REMARK  141  A    between atoms: _331  and  _334
REMARK  142  A    between atoms: _334  and  _335
REMARK  143  A    between atoms: _337  and  _339
REMARK  144  A    between atoms: _339  and  _340
REMARK  145  A    between atoms: _339  and  _342
REMARK  146  A    between atoms: _342  and  _343
REMARK  147  A    between atoms: _343  and  _344
REMARK  148  A    between atoms: _344  and  _345
REMARK  149  A    between atoms: _354  and  _356
REMARK  150  A    between atoms: _356  and  _357
REMARK  151  A    between atoms: _360  and  _362
REMARK  152  A    between atoms: _362  and  _363
REMARK  153  A    between atoms: _362  and  _365
REMARK  154  A    between atoms: _368  and  _370
REMARK  155  A    between atoms: _370  and  _371
REMARK  156  A    between atoms: _373  and  _375
REMARK  157  A    between atoms: _375  and  _376
REMARK  158  A    between atoms: _378  and  _380
REMARK  159  A    between atoms: _380  and  _381
REMARK  160  A    between atoms: _380  and  _383
REMARK  161  A    between atoms: _383  and  _384
REMARK  162  A    between atoms: _387  and  _389
REMARK  163  A    between atoms: _389  and  _390
REMARK  164  A    between atoms: _393  and  _395
REMARK  165  A    between atoms: _395  and  _396
REMARK  166  A    between atoms: _395  and  _398
REMARK  167  A    between atoms: _401  and  _403
REMARK  168  A    between atoms: _403  and  _404
REMARK  169  A    between atoms: _406  and  _408
REMARK  170  A    between atoms: _408  and  _409
REMARK  171  A    between atoms: _408  and  _411
REMARK  172  A    between atoms: _411  and  _412
REMARK  173  A    between atoms: _412  and  _413
REMARK  174  A    between atoms: _416  and  _418
REMARK  175  A    between atoms: _418  and  _419
REMARK  176  A    between atoms: _418  and  _421
REMARK  177  A    between atoms: _421  and  _422
REMARK  178  A    between atoms: _427  and  _428
REMARK  179  A    between atoms: _430  and  _432
REMARK  180  A    between atoms: _432  and  _433
REMARK  181  A    between atoms: _432  and  _435
REMARK  182  A    between atoms: _435  and  _436
REMARK  183  A    between atoms: _439  and  _441
REMARK  184  A    between atoms: _441  and  _442
REMARK  185  A    between atoms: _441  and  _444
REMARK  186  A    between atoms: _444  and  _445
REMARK  187  A    between atoms: _445  and  _446
REMARK  188  A    between atoms: _448  and  _450
REMARK  189  A    between atoms: _450  and  _451
REMARK  190  A    between atoms: _453  and  _455
REMARK  191  A    between atoms: _455  and  _456
REMARK  192  A    between atoms: _455  and  _458
REMARK  193  A    between atoms: _461  and  _463
REMARK  194  A    between atoms: _463  and  _464
REMARK  195  A    between atoms: _466  and  _468
REMARK  196  A    between atoms: _468  and  _469
REMARK  197  A    between atoms: _468  and  _471
REMARK  198  A    between atoms: _471  and  _472
REMARK  199  A    between atoms: _478  and  _480
REMARK  200  A    between atoms: _480  and  _481
REMARK  201  A    between atoms: _480  and  _483
REMARK  202  A    between atoms: _483  and  _484
REMARK  203  A    between atoms: _487  and  _489
REMARK  204  A    between atoms: _489  and  _490
REMARK  205  A    between atoms: _489  and  _492
REMARK  206  A    between atoms: _494  and  _496
REMARK  207  A    between atoms: _496  and  _497
REMARK  208  A    between atoms: _496  and  _499
REMARK  209  A    between atoms: _502  and  _504
REMARK  210  A    between atoms: _504  and  _505
REMARK  211  A    between atoms: _504  and  _507
REMARK  212  A    between atoms: _507  and  _508
REMARK  213  A    between atoms: _511  and  _513
REMARK  214  A    between atoms: _513  and  _514
REMARK  215  A    between atoms: _513  and  _516
REMARK  216  A    between atoms: _516  and  _517
REMARK  217  A    between atoms: _517  and  _518
REMARK  218  A    between atoms: _518  and  _519
REMARK                            x       y       z     vdW  Elec       q    Type
REMARK                         _______ _______ _______ _____ _____    ______ ____
ROOT
ATOM      1  O   HOH     1      10.264  14.239 100.923  0.00  0.00    +0.000 OA
ENDROOT
TORSDOF 0
REMARK  Name = ../refined-set-2016/4leq/4leq_pocket.pdb
REMARK  218 active torsions:
REMARK  status: ('A' for Active; 'I' for Inactive)
REMARK    1  A    between atoms: _1  and  _3
REMARK    2  A    between atoms: _3  and  _4
REMARK    3  A    between atoms: _3  and  _6
REMARK    4  A    between atoms: _6  and  _7
REMARK    5  A    between atoms: _7  and  _8
REMARK    6  A    between atoms: _11  and  _12
REMARK    7  A    between atoms: _17  and  _19
REMARK    8  A    between atoms: _19  and  _20
REMARK    9  A    between atoms: _19  and  _22
REMARK   10  A    between atoms: _25  and  _27
REMARK   11  A    between atoms: _27  and  _28
REMARK   12  A    between atoms: _30  and  _32
REMARK   13  A    between atoms: _32  and  _33
REMARK   14  A    between atoms: _32  and  _35
REMARK   15  A    between atoms: _35  and  _36
REMARK   16  A    between atoms: _39  and  _41
REMARK   17  A    between atoms: _41  and  _42
REMARK   18  A    between atoms: _45  and  _47
REMARK   19  A    between atoms: _47  and  _48
REMARK   20  A    between atoms: _47  and  _50
REMARK   21  A    between atoms: _50  and  _51
REMARK   22  A    between atoms: _54  and  _56
REMARK   23  A    between atoms: _56  and  _57
REMARK   24  A    between atoms: _59  and  _61
REMARK   25  A    between atoms: _61  and  _62
REMARK   26  A    between atoms: _61  and  _64
REMARK   27  A    between atoms: _64  and  _65
REMARK   28  A    between atoms: _70  and  _72
REMARK   29  A    between atoms: _72  and  _73
REMARK   30  A    between atoms: _72  and  _75
REMARK   31  A    between atoms: _75  and  _76
REMARK   32  A    between atoms: _79  and  _81
REMARK   33  A    between atoms: _81  and  _82
REMARK   34  A    between atoms: _81  and  _84
REMARK   35  A    between atoms: _84  and  _85
REMARK   36  A    between atoms: _90  and  _91
REMARK   37  A    between atoms: _93  and  _95
REMARK   38  A    between atoms: _95  and  _96
REMARK   39  A    between atoms: _95  and  _98
REMARK   40  A    between atoms: _98  and  _99
REMARK   41  A    between atoms: _104  and  _106
REMARK   42  A    between atoms: _106  and  _107
REMARK   43  A    between atoms: _106  and  _109
REMARK   44  A    between atoms: _109  and  _110
REMARK   45  A    between atoms: _113  and  _115
REMARK   46  A    between atoms: _115  and  _116
REMARK   47  A    between atoms: _115  and  _118
REMARK   48  A    between atoms: _118  and  _119
REMARK   49  A    between atoms: _122  and  _124
REMARK   50  A    between atoms: _124  and  _125
REMARK   51  A    between atoms: _124  and  _127
REMARK   52  A    between atoms: _127  and  _128
REMARK   53  A    between atoms: _131  and  _133
REMARK   54  A    between atoms: _133  and  _134
REMARK   55  A    between atoms: _133  and  _136
REMARK   56  A    between atoms: _136  and  _137
REMARK   57  A    between atoms: _139  and  _141
REMARK   58  A    between atoms: _141  and  _142
REMARK   59  A    between atoms: _144  and  _146
REMARK   60  A    between atoms: _146  and  _147
REMARK   61  A    between atoms: _149  and  _151
REMARK   62  A    between atoms: _151  and  _152
REMARK   63  A    between atoms: _151  and  _154
REMARK   64  A    between atoms: _154  and  _155
REMARK   65  A    between atoms: _160  and  _161
REMARK   66  A    between atoms: _163  and  _165
REMARK   67  A    between atoms: _165  and  _166
REMARK   68  A    between atoms: _165  and  _168
REMARK   69  A    between atoms: _168  and  _169
REMARK   70  A    between atoms: _169  and  _170
REMARK   71  A    between atoms: _175  and  _177
REMARK   72  A    between atoms: _177  and  _178
REMARK   73  A    between atoms: _177  and  _180
REMARK   74  A    between atoms: _183  and  _185
REMARK   75  A    between atoms: _185  and  _186
REMARK   76  A    between atoms: _185  and  _188
REMARK   77  A    between atoms: _188  and  _189
REMARK   78  A    between atoms: _189  and  _190
REMARK   79  A    between atoms: _192  and  _194
REMARK   80  A    between atoms: _194  and  _195
REMARK   81  A    between atoms: _194  and  _197
REMARK   82  A    between atoms: _197  and  _198
REMARK   83  A    between atoms: _200  and  _202
REMARK   84  A    between atoms: _202  and  _203
REMARK   85  A    between atoms: _202  and  _205
REMARK   86  A    between atoms: _205  and  _206
REMARK   87  A    between atoms: _209  and  _211
REMARK   88  A    between atoms: _211  and  _212
REMARK   89  A    between atoms: _211  and  _214
REMARK   90  A    between atoms: _214  and  _215
REMARK   91  A    between atoms: _215  and  _216
REMARK   92  A    between atoms: _221  and  _223
REMARK   93  A    between atoms: _223  and  _224
REMARK   94  A    between atoms: _223  and  _226
REMARK   95  A    between atoms: _226  and  _227
REMARK   96  A    between atoms: _227  and  _228
REMARK   97  A    between atoms: _230  and  _232
REMARK   98  A    between atoms: _232  and  _233
REMARK   99  A    between atoms: _236  and  _238
REMARK  100  A    between atoms: _238  and  _239
REMARK  101  A    between atoms: _238  and  _241
REMARK  102  A    between atoms: _241  and  _242
REMARK  103  A    between atoms: _248  and  _250
REMARK  104  A    between atoms: _250  and  _251
REMARK  105  A    between atoms: _250  and  _253
REMARK  106  A    between atoms: _253  and  _254
REMARK  107  A    between atoms: _257  and  _259
REMARK  108  A    between atoms: _259  and  _260
REMARK  109  A    between atoms: _259  and  _262
REMARK  110  A    between atoms: _262  and  _263
REMARK  111  A    between atoms: _263  and  _264
REMARK  112  A    between atoms: _267  and  _269
REMARK  113  A    between atoms: _269  and  _270
REMARK  114  A    between atoms: _269  and  _272
REMARK  115  A    between atoms: _274  and  _276
REMARK  116  A    between atoms: _276  and  _277
REMARK  117  A    between atoms: _276  and  _279
REMARK  118  A    between atoms: _279  and  _280
REMARK  119  A    between atoms: _283  and  _285
REMARK  120  A    between atoms: _285  and  _286
REMARK  121  A    between atoms: _285  and  _288
REMARK  122  A    between atoms: _288  and  _289
REMARK  123  A    between atoms: _291  and  _293
REMARK  124  A    between atoms: _293  and  _294
REMARK  125  A    between atoms: _293  and  _296
REMARK  126  A    between atoms: _296  and  _297
REMARK  127  A    between atoms: _300  and  _302
REMARK  128  A    between atoms: _302  and  _303
REMARK  129  A    between atoms: _302  and  _305
REMARK  130  A    between atoms: _305  and  _306
REMARK  131  A    between atoms: _306  and  _307
REMARK  132  A    between atoms: _312  and  _314
REMARK  133  A    between atoms: _314  and  _315
REMARK  134  A    between atoms: _314  and  _317
REMARK  135  A    between atoms: _317  and  _318
REMARK  136  A    between atoms: _318  and  _319
REMARK  137  A    between atoms: _324  and  _326
REMARK  138  A    between atoms: _326  and  _327
REMARK  139  A    between atoms: _329  and  _331
REMARK  140  A    between atoms: _331  and  _332
REMARK  141  A    between atoms: _331  and  _334
REMARK  142  A    between atoms: _334  and  _335
REMARK  143  A    between atoms: _337  and  _339
REMARK  144  A    between atoms: _339  and  _340
REMARK  145  A    between atoms: _339  and  _342
REMARK  146  A    between atoms: _342  and  _343
REMARK  147  A    between atoms: _343  and  _344
REMARK  148  A    between atoms: _344  and  _345
REMARK  149  A    between atoms: _354  and  _356
REMARK  150  A    between atoms: _356  and  _357
REMARK  151  A    between atoms: _360  and  _362
REMARK  152  A    between atoms: _362  and  _363
REMARK  153  A    between atoms: _362  and  _365
REMARK  154  A    between atoms: _368  and  _370
REMARK  155  A    between atoms: _370  and  _371
REMARK  156  A    between atoms: _373  and  _375
REMARK  157  A    between atoms: _375  and  _376
REMARK  158  A    between atoms: _378  and  _380
REMARK  159  A    between atoms: _380  and  _381
REMARK  160  A    between atoms: _380  and  _383
REMARK  161  A    between atoms: _383  and  _384
REMARK  162  A    between atoms: _387  and  _389
REMARK  163  A    between atoms: _389  and  _390
REMARK  164  A    between atoms: _393  and  _395
REMARK  165  A    between atoms: _395  and  _396
REMARK  166  A    between atoms: _395  and  _398
REMARK  167  A    between atoms: _401  and  _403
REMARK  168  A    between atoms: _403  and  _404
REMARK  169  A    between atoms: _406  and  _408
REMARK  170  A    between atoms: _408  and  _409
REMARK  171  A    between atoms: _408  and  _411
REMARK  172  A    between atoms: _411  and  _412
REMARK  173  A    between atoms: _412  and  _413
REMARK  174  A    between atoms: _416  and  _418
REMARK  175  A    between atoms: _418  and  _419
REMARK  176  A    between atoms: _418  and  _421
REMARK  177  A    between atoms: _421  and  _422
REMARK  178  A    between atoms: _427  and  _428
REMARK  179  A    between atoms: _430  and  _432
REMARK  180  A    between atoms: _432  and  _433
REMARK  181  A    between atoms: _432  and  _435
REMARK  182  A    between atoms: _435  and  _436
REMARK  183  A    between atoms: _439  and  _441
REMARK  184  A    between atoms: _441  and  _442
REMARK  185  A    between atoms: _441  and  _444
REMARK  186  A    between atoms: _444  and  _445
REMARK  187  A    between atoms: _445  and  _446
REMARK  188  A    between atoms: _448  and  _450
REMARK  189  A    between atoms: _450  and  _451
REMARK  190  A    between atoms: _453  and  _455
REMARK  191  A    between atoms: _455  and  _456
REMARK  192  A    between atoms: _455  and  _458
REMARK  193  A    between atoms: _461  and  _463
REMARK  194  A    between atoms: _463  and  _464
REMARK  195  A    between atoms: _466  and  _468
REMARK  196  A    between atoms: _468  and  _469
REMARK  197  A    between atoms: _468  and  _471
REMARK  198  A    between atoms: _471  and  _472
REMARK  199  A    between atoms: _478  and  _480
REMARK  200  A    between atoms: _480  and  _481
REMARK  201  A    between atoms: _480  and  _483
REMARK  202  A    between atoms: _483  and  _484
REMARK  203  A    between atoms: _487  and  _489
REMARK  204  A    between atoms: _489  and  _490
REMARK  205  A    between atoms: _489  and  _492
REMARK  206  A    between atoms: _494  and  _496
REMARK  207  A    between atoms: _496  and  _497
REMARK  208  A    between atoms: _496  and  _499
REMARK  209  A    between atoms: _502  and  _504
REMARK  210  A    between atoms: _504  and  _505
REMARK  211  A    between atoms: _504  and  _507
REMARK  212  A    between atoms: _507  and  _508
REMARK  213  A    between atoms: _511  and  _513
REMARK  214  A    between atoms: _513  and  _514
REMARK  215  A    between atoms: _513  and  _516
REMARK  216  A    between atoms: _516  and  _517
REMARK  217  A    between atoms: _517  and  _518
REMARK  218  A    between atoms: _518  and  _519
REMARK                            x       y       z     vdW  Elec       q    Type
REMARK                         _______ _______ _______ _____ _____    ______ ____
ROOT
ATOM      1  O   HOH     1       3.712  17.892  92.244  0.00  0.00    +0.000 OA
ENDROOT
TORSDOF 0
REMARK  Name = ../refined-set-2016/4leq/4leq_pocket.pdb
REMARK  218 active torsions:
REMARK  status: ('A' for Active; 'I' for Inactive)
REMARK    1  A    between atoms: _1  and  _3
REMARK    2  A    between atoms: _3  and  _4
REMARK    3  A    between atoms: _3  and  _6
REMARK    4  A    between atoms: _6  and  _7
REMARK    5  A    between atoms: _7  and  _8
REMARK    6  A    between atoms: _11  and  _12
REMARK    7  A    between atoms: _17  and  _19
REMARK    8  A    between atoms: _19  and  _20
REMARK    9  A    between atoms: _19  and  _22
REMARK   10  A    between atoms: _25  and  _27
REMARK   11  A    between atoms: _27  and  _28
REMARK   12  A    between atoms: _30  and  _32
REMARK   13  A    between atoms: _32  and  _33
REMARK   14  A    between atoms: _32  and  _35
REMARK   15  A    between atoms: _35  and  _36
REMARK   16  A    between atoms: _39  and  _41
REMARK   17  A    between atoms: _41  and  _42
REMARK   18  A    between atoms: _45  and  _47
REMARK   19  A    between atoms: _47  and  _48
REMARK   20  A    between atoms: _47  and  _50
REMARK   21  A    between atoms: _50  and  _51
REMARK   22  A    between atoms: _54  and  _56
REMARK   23  A    between atoms: _56  and  _57
REMARK   24  A    between atoms: _59  and  _61
REMARK   25  A    between atoms: _61  and  _62
REMARK   26  A    between atoms: _61  and  _64
REMARK   27  A    between atoms: _64  and  _65
REMARK   28  A    between atoms: _70  and  _72
REMARK   29  A    between atoms: _72  and  _73
REMARK   30  A    between atoms: _72  and  _75
REMARK   31  A    between atoms: _75  and  _76
REMARK   32  A    between atoms: _79  and  _81
REMARK   33  A    between atoms: _81  and  _82
REMARK   34  A    between atoms: _81  and  _84
REMARK   35  A    between atoms: _84  and  _85
REMARK   36  A    between atoms: _90  and  _91
REMARK   37  A    between atoms: _93  and  _95
REMARK   38  A    between atoms: _95  and  _96
REMARK   39  A    between atoms: _95  and  _98
REMARK   40  A    between atoms: _98  and  _99
REMARK   41  A    between atoms: _104  and  _106
REMARK   42  A    between atoms: _106  and  _107
REMARK   43  A    between atoms: _106  and  _109
REMARK   44  A    between atoms: _109  and  _110
REMARK   45  A    between atoms: _113  and  _115
REMARK   46  A    between atoms: _115  and  _116
REMARK   47  A    between atoms: _115  and  _118
REMARK   48  A    between atoms: _118  and  _119
REMARK   49  A    between atoms: _122  and  _124
REMARK   50  A    between atoms: _124  and  _125
REMARK   51  A    between atoms: _124  and  _127
REMARK   52  A    between atoms: _127  and  _128
REMARK   53  A    between atoms: _131  and  _133
REMARK   54  A    between atoms: _133  and  _134
REMARK   55  A    between atoms: _133  and  _136
REMARK   56  A    between atoms: _136  and  _137
REMARK   57  A    between atoms: _139  and  _141
REMARK   58  A    between atoms: _141  and  _142
REMARK   59  A    between atoms: _144  and  _146
REMARK   60  A    between atoms: _146  and  _147
REMARK   61  A    between atoms: _149  and  _151
REMARK   62  A    between atoms: _151  and  _152
REMARK   63  A    between atoms: _151  and  _154
REMARK   64  A    between atoms: _154  and  _155
REMARK   65  A    between atoms: _160  and  _161
REMARK   66  A    between atoms: _163  and  _165
REMARK   67  A    between atoms: _165  and  _166
REMARK   68  A    between atoms: _165  and  _168
REMARK   69  A    between atoms: _168  and  _169
REMARK   70  A    between atoms: _169  and  _170
REMARK   71  A    between atoms: _175  and  _177
REMARK   72  A    between atoms: _177  and  _178
REMARK   73  A    between atoms: _177  and  _180
REMARK   74  A    between atoms: _183  and  _185
REMARK   75  A    between atoms: _185  and  _186
REMARK   76  A    between atoms: _185  and  _188
REMARK   77  A    between atoms: _188  and  _189
REMARK   78  A    between atoms: _189  and  _190
REMARK   79  A    between atoms: _192  and  _194
REMARK   80  A    between atoms: _194  and  _195
REMARK   81  A    between atoms: _194  and  _197
REMARK   82  A    between atoms: _197  and  _198
REMARK   83  A    between atoms: _200  and  _202
REMARK   84  A    between atoms: _202  and  _203
REMARK   85  A    between atoms: _202  and  _205
REMARK   86  A    between atoms: _205  and  _206
REMARK   87  A    between atoms: _209  and  _211
REMARK   88  A    between atoms: _211  and  _212
REMARK   89  A    between atoms: _211  and  _214
REMARK   90  A    between atoms: _214  and  _215
REMARK   91  A    between atoms: _215  and  _216
REMARK   92  A    between atoms: _221  and  _223
REMARK   93  A    between atoms: _223  and  _224
REMARK   94  A    between atoms: _223  and  _226
REMARK   95  A    between atoms: _226  and  _227
REMARK   96  A    between atoms: _227  and  _228
REMARK   97  A    between atoms: _230  and  _232
REMARK   98  A    between atoms: _232  and  _233
REMARK   99  A    between atoms: _236  and  _238
REMARK  100  A    between atoms: _238  and  _239
REMARK  101  A    between atoms: _238  and  _241
REMARK  102  A    between atoms: _241  and  _242
REMARK  103  A    between atoms: _248  and  _250
REMARK  104  A    between atoms: _250  and  _251
REMARK  105  A    between atoms: _250  and  _253
REMARK  106  A    between atoms: _253  and  _254
REMARK  107  A    between atoms: _257  and  _259
REMARK  108  A    between atoms: _259  and  _260
REMARK  109  A    between atoms: _259  and  _262
REMARK  110  A    between atoms: _262  and  _263
REMARK  111  A    between atoms: _263  and  _264
REMARK  112  A    between atoms: _267  and  _269
REMARK  113  A    between atoms: _269  and  _270
REMARK  114  A    between atoms: _269  and  _272
REMARK  115  A    between atoms: _274  and  _276
REMARK  116  A    between atoms: _276  and  _277
REMARK  117  A    between atoms: _276  and  _279
REMARK  118  A    between atoms: _279  and  _280
REMARK  119  A    between atoms: _283  and  _285
REMARK  120  A    between atoms: _285  and  _286
REMARK  121  A    between atoms: _285  and  _288
REMARK  122  A    between atoms: _288  and  _289
REMARK  123  A    between atoms: _291  and  _293
REMARK  124  A    between atoms: _293  and  _294
REMARK  125  A    between atoms: _293  and  _296
REMARK  126  A    between atoms: _296  and  _297
REMARK  127  A    between atoms: _300  and  _302
REMARK  128  A    between atoms: _302  and  _303
REMARK  129  A    between atoms: _302  and  _305
REMARK  130  A    between atoms: _305  and  _306
REMARK  131  A    between atoms: _306  and  _307
REMARK  132  A    between atoms: _312  and  _314
REMARK  133  A    between atoms: _314  and  _315
REMARK  134  A    between atoms: _314  and  _317
REMARK  135  A    between atoms: _317  and  _318
REMARK  136  A    between atoms: _318  and  _319
REMARK  137  A    between atoms: _324  and  _326
REMARK  138  A    between atoms: _326  and  _327
REMARK  139  A    between atoms: _329  and  _331
REMARK  140  A    between atoms: _331  and  _332
REMARK  141  A    between atoms: _331  and  _334
REMARK  142  A    between atoms: _334  and  _335
REMARK  143  A    between atoms: _337  and  _339
REMARK  144  A    between atoms: _339  and  _340
REMARK  145  A    between atoms: _339  and  _342
REMARK  146  A    between atoms: _342  and  _343
REMARK  147  A    between atoms: _343  and  _344
REMARK  148  A    between atoms: _344  and  _345
REMARK  149  A    between atoms: _354  and  _356
REMARK  150  A    between atoms: _356  and  _357
REMARK  151  A    between atoms: _360  and  _362
REMARK  152  A    between atoms: _362  and  _363
REMARK  153  A    between atoms: _362  and  _365
REMARK  154  A    between atoms: _368  and  _370
REMARK  155  A    between atoms: _370  and  _371
REMARK  156  A    between atoms: _373  and  _375
REMARK  157  A    between atoms: _375  and  _376
REMARK  158  A    between atoms: _378  and  _380
REMARK  159  A    between atoms: _380  and  _381
REMARK  160  A    between atoms: _380  and  _383
REMARK  161  A    between atoms: _383  and  _384
REMARK  162  A    between atoms: _387  and  _389
REMARK  163  A    between atoms: _389  and  _390
REMARK  164  A    between atoms: _393  and  _395
REMARK  165  A    between atoms: _395  and  _396
REMARK  166  A    between atoms: _395  and  _398
REMARK  167  A    between atoms: _401  and  _403
REMARK  168  A    between atoms: _403  and  _404
REMARK  169  A    between atoms: _406  and  _408
REMARK  170  A    between atoms: _408  and  _409
REMARK  171  A    between atoms: _408  and  _411
REMARK  172  A    between atoms: _411  and  _412
REMARK  173  A    between atoms: _412  and  _413
REMARK  174  A    between atoms: _416  and  _418
REMARK  175  A    between atoms: _418  and  _419
REMARK  176  A    between atoms: _418  and  _421
REMARK  177  A    between atoms: _421  and  _422
REMARK  178  A    between atoms: _427  and  _428
REMARK  179  A    between atoms: _430  and  _432
REMARK  180  A    between atoms: _432  and  _433
REMARK  181  A    between atoms: _432  and  _435
REMARK  182  A    between atoms: _435  and  _436
REMARK  183  A    between atoms: _439  and  _441
REMARK  184  A    between atoms: _441  and  _442
REMARK  185  A    between atoms: _441  and  _444
REMARK  186  A    between atoms: _444  and  _445
REMARK  187  A    between atoms: _445  and  _446
REMARK  188  A    between atoms: _448  and  _450
REMARK  189  A    between atoms: _450  and  _451
REMARK  190  A    between atoms: _453  and  _455
REMARK  191  A    between atoms: _455  and  _456
REMARK  192  A    between atoms: _455  and  _458
REMARK  193  A    between atoms: _461  and  _463
REMARK  194  A    between atoms: _463  and  _464
REMARK  195  A    between atoms: _466  and  _468
REMARK  196  A    between atoms: _468  and  _469
REMARK  197  A    between atoms: _468  and  _471
REMARK  198  A    between atoms: _471  and  _472
REMARK  199  A    between atoms: _478  and  _480
REMARK  200  A    between atoms: _480  and  _481
REMARK  201  A    between atoms: _480  and  _483
REMARK  202  A    between atoms: _483  and  _484
REMARK  203  A    between atoms: _487  and  _489
REMARK  204  A    between atoms: _489  and  _490
REMARK  205  A    between atoms: _489  and  _492
REMARK  206  A    between atoms: _494  and  _496
REMARK  207  A    between atoms: _496  and  _497
REMARK  208  A    between atoms: _496  and  _499
REMARK  209  A    between atoms: _502  and  _504
REMARK  210  A    between atoms: _504  and  _505
REMARK  211  A    between atoms: _504  and  _507
REMARK  212  A    between atoms: _507  and  _508
REMARK  213  A    between atoms: _511  and  _513
REMARK  214  A    between atoms: _513  and  _514
REMARK  215  A    between atoms: _513  and  _516
REMARK  216  A    between atoms: _516  and  _517
REMARK  217  A    between atoms: _517  and  _518
REMARK  218  A    between atoms: _518  and  _519
REMARK                            x       y       z     vdW  Elec       q    Type
REMARK                         _______ _______ _______ _____ _____    ______ ____
ROOT
ATOM      1  O   HOH     1       7.676  15.578  85.372  0.00  0.00    +0.000 OA
ENDROOT
TORSDOF 0
REMARK  Name = ../refined-set-2016/4leq/4leq_pocket.pdb
REMARK  218 active torsions:
REMARK  status: ('A' for Active; 'I' for Inactive)
REMARK    1  A    between atoms: _1  and  _3
REMARK    2  A    between atoms: _3  and  _4
REMARK    3  A    between atoms: _3  and  _6
REMARK    4  A    between atoms: _6  and  _7
REMARK    5  A    between atoms: _7  and  _8
REMARK    6  A    between atoms: _11  and  _12
REMARK    7  A    between atoms: _17  and  _19
REMARK    8  A    between atoms: _19  and  _20
REMARK    9  A    between atoms: _19  and  _22
REMARK   10  A    between atoms: _25  and  _27
REMARK   11  A    between atoms: _27  and  _28
REMARK   12  A    between atoms: _30  and  _32
REMARK   13  A    between atoms: _32  and  _33
REMARK   14  A    between atoms: _32  and  _35
REMARK   15  A    between atoms: _35  and  _36
REMARK   16  A    between atoms: _39  and  _41
REMARK   17  A    between atoms: _41  and  _42
REMARK   18  A    between atoms: _45  and  _47
REMARK   19  A    between atoms: _47  and  _48
REMARK   20  A    between atoms: _47  and  _50
REMARK   21  A    between atoms: _50  and  _51
REMARK   22  A    between atoms: _54  and  _56
REMARK   23  A    between atoms: _56  and  _57
REMARK   24  A    between atoms: _59  and  _61
REMARK   25  A    between atoms: _61  and  _62
REMARK   26  A    between atoms: _61  and  _64
REMARK   27  A    between atoms: _64  and  _65
REMARK   28  A    between atoms: _70  and  _72
REMARK   29  A    between atoms: _72  and  _73
REMARK   30  A    between atoms: _72  and  _75
REMARK   31  A    between atoms: _75  and  _76
REMARK   32  A    between atoms: _79  and  _81
REMARK   33  A    between atoms: _81  and  _82
REMARK   34  A    between atoms: _81  and  _84
REMARK   35  A    between atoms: _84  and  _85
REMARK   36  A    between atoms: _90  and  _91
REMARK   37  A    between atoms: _93  and  _95
REMARK   38  A    between atoms: _95  and  _96
REMARK   39  A    between atoms: _95  and  _98
REMARK   40  A    between atoms: _98  and  _99
REMARK   41  A    between atoms: _104  and  _106
REMARK   42  A    between atoms: _106  and  _107
REMARK   43  A    between atoms: _106  and  _109
REMARK   44  A    between atoms: _109  and  _110
REMARK   45  A    between atoms: _113  and  _115
REMARK   46  A    between atoms: _115  and  _116
REMARK   47  A    between atoms: _115  and  _118
REMARK   48  A    between atoms: _118  and  _119
REMARK   49  A    between atoms: _122  and  _124
REMARK   50  A    between atoms: _124  and  _125
REMARK   51  A    between atoms: _124  and  _127
REMARK   52  A    between atoms: _127  and  _128
REMARK   53  A    between atoms: _131  and  _133
REMARK   54  A    between atoms: _133  and  _134
REMARK   55  A    between atoms: _133  and  _136
REMARK   56  A    between atoms: _136  and  _137
REMARK   57  A    between atoms: _139  and  _141
REMARK   58  A    between atoms: _141  and  _142
REMARK   59  A    between atoms: _144  and  _146
REMARK   60  A    between atoms: _146  and  _147
REMARK   61  A    between atoms: _149  and  _151
REMARK   62  A    between atoms: _151  and  _152
REMARK   63  A    between atoms: _151  and  _154
REMARK   64  A    between atoms: _154  and  _155
REMARK   65  A    between atoms: _160  and  _161
REMARK   66  A    between atoms: _163  and  _165
REMARK   67  A    between atoms: _165  and  _166
REMARK   68  A    between atoms: _165  and  _168
REMARK   69  A    between atoms: _168  and  _169
REMARK   70  A    between atoms: _169  and  _170
REMARK   71  A    between atoms: _175  and  _177
REMARK   72  A    between atoms: _177  and  _178
REMARK   73  A    between atoms: _177  and  _180
REMARK   74  A    between atoms: _183  and  _185
REMARK   75  A    between atoms: _185  and  _186
REMARK   76  A    between atoms: _185  and  _188
REMARK   77  A    between atoms: _188  and  _189
REMARK   78  A    between atoms: _189  and  _190
REMARK   79  A    between atoms: _192  and  _194
REMARK   80  A    between atoms: _194  and  _195
REMARK   81  A    between atoms: _194  and  _197
REMARK   82  A    between atoms: _197  and  _198
REMARK   83  A    between atoms: _200  and  _202
REMARK   84  A    between atoms: _202  and  _203
REMARK   85  A    between atoms: _202  and  _205
REMARK   86  A    between atoms: _205  and  _206
REMARK   87  A    between atoms: _209  and  _211
REMARK   88  A    between atoms: _211  and  _212
REMARK   89  A    between atoms: _211  and  _214
REMARK   90  A    between atoms: _214  and  _215
REMARK   91  A    between atoms: _215  and  _216
REMARK   92  A    between atoms: _221  and  _223
REMARK   93  A    between atoms: _223  and  _224
REMARK   94  A    between atoms: _223  and  _226
REMARK   95  A    between atoms: _226  and  _227
REMARK   96  A    between atoms: _227  and  _228
REMARK   97  A    between atoms: _230  and  _232
REMARK   98  A    between atoms: _232  and  _233
REMARK   99  A    between atoms: _236  and  _238
REMARK  100  A    between atoms: _238  and  _239
REMARK  101  A    between atoms: _238  and  _241
REMARK  102  A    between atoms: _241  and  _242
REMARK  103  A    between atoms: _248  and  _250
REMARK  104  A    between atoms: _250  and  _251
REMARK  105  A    between atoms: _250  and  _253
REMARK  106  A    between atoms: _253  and  _254
REMARK  107  A    between atoms: _257  and  _259
REMARK  108  A    between atoms: _259  and  _260
REMARK  109  A    between atoms: _259  and  _262
REMARK  110  A    between atoms: _262  and  _263
REMARK  111  A    between atoms: _263  and  _264
REMARK  112  A    between atoms: _267  and  _269
REMARK  113  A    between atoms: _269  and  _270
REMARK  114  A    between atoms: _269  and  _272
REMARK  115  A    between atoms: _274  and  _276
REMARK  116  A    between atoms: _276  and  _277
REMARK  117  A    between atoms: _276  and  _279
REMARK  118  A    between atoms: _279  and  _280
REMARK  119  A    between atoms: _283  and  _285
REMARK  120  A    between atoms: _285  and  _286
REMARK  121  A    between atoms: _285  and  _288
REMARK  122  A    between atoms: _288  and  _289
REMARK  123  A    between atoms: _291  and  _293
REMARK  124  A    between atoms: _293  and  _294
REMARK  125  A    between atoms: _293  and  _296
REMARK  126  A    between atoms: _296  and  _297
REMARK  127  A    between atoms: _300  and  _302
REMARK  128  A    between atoms: _302  and  _303
REMARK  129  A    between atoms: _302  and  _305
REMARK  130  A    between atoms: _305  and  _306
REMARK  131  A    between atoms: _306  and  _307
REMARK  132  A    between atoms: _312  and  _314
REMARK  133  A    between atoms: _314  and  _315
REMARK  134  A    between atoms: _314  and  _317
REMARK  135  A    between atoms: _317  and  _318
REMARK  136  A    between atoms: _318  and  _319
REMARK  137  A    between atoms: _324  and  _326
REMARK  138  A    between atoms: _326  and  _327
REMARK  139  A    between atoms: _329  and  _331
REMARK  140  A    between atoms: _331  and  _332
REMARK  141  A    between atoms: _331  and  _334
REMARK  142  A    between atoms: _334  and  _335
REMARK  143  A    between atoms: _337  and  _339
REMARK  144  A    between atoms: _339  and  _340
REMARK  145  A    between atoms: _339  and  _342
REMARK  146  A    between atoms: _342  and  _343
REMARK  147  A    between atoms: _343  and  _344
REMARK  148  A    between atoms: _344  and  _345
REMARK  149  A    between atoms: _354  and  _356
REMARK  150  A    between atoms: _356  and  _357
REMARK  151  A    between atoms: _360  and  _362
REMARK  152  A    between atoms: _362  and  _363
REMARK  153  A    between atoms: _362  and  _365
REMARK  154  A    between atoms: _368  and  _370
REMARK  155  A    between atoms: _370  and  _371
REMARK  156  A    between atoms: _373  and  _375
REMARK  157  A    between atoms: _375  and  _376
REMARK  158  A    between atoms: _378  and  _380
REMARK  159  A    between atoms: _380  and  _381
REMARK  160  A    between atoms: _380  and  _383
REMARK  161  A    between atoms: _383  and  _384
REMARK  162  A    between atoms: _387  and  _389
REMARK  163  A    between atoms: _389  and  _390
REMARK  164  A    between atoms: _393  and  _395
REMARK  165  A    between atoms: _395  and  _396
REMARK  166  A    between atoms: _395  and  _398
REMARK  167  A    between atoms: _401  and  _403
REMARK  168  A    between atoms: _403  and  _404
REMARK  169  A    between atoms: _406  and  _408
REMARK  170  A    between atoms: _408  and  _409
REMARK  171  A    between atoms: _408  and  _411
REMARK  172  A    between atoms: _411  and  _412
REMARK  173  A    between atoms: _412  and  _413
REMARK  174  A    between atoms: _416  and  _418
REMARK  175  A    between atoms: _418  and  _419
REMARK  176  A    between atoms: _418  and  _421
REMARK  177  A    between atoms: _421  and  _422
REMARK  178  A    between atoms: _427  and  _428
REMARK  179  A    between atoms: _430  and  _432
REMARK  180  A    between atoms: _432  and  _433
REMARK  181  A    between atoms: _432  and  _435
REMARK  182  A    between atoms: _435  and  _436
REMARK  183  A    between atoms: _439  and  _441
REMARK  184  A    between atoms: _441  and  _442
REMARK  185  A    between atoms: _441  and  _444
REMARK  186  A    between atoms: _444  and  _445
REMARK  187  A    between atoms: _445  and  _446
REMARK  188  A    between atoms: _448  and  _450
REMARK  189  A    between atoms: _450  and  _451
REMARK  190  A    between atoms: _453  and  _455
REMARK  191  A    between atoms: _455  and  _456
REMARK  192  A    between atoms: _455  and  _458
REMARK  193  A    between atoms: _461  and  _463
REMARK  194  A    between atoms: _463  and  _464
REMARK  195  A    between atoms: _466  and  _468
REMARK  196  A    between atoms: _468  and  _469
REMARK  197  A    between atoms: _468  and  _471
REMARK  198  A    between atoms: _471  and  _472
REMARK  199  A    between atoms: _478  and  _480
REMARK  200  A    between atoms: _480  and  _481
REMARK  201  A    between atoms: _480  and  _483
REMARK  202  A    between atoms: _483  and  _484
REMARK  203  A    between atoms: _487  and  _489
REMARK  204  A    between atoms: _489  and  _490
REMARK  205  A    between atoms: _489  and  _492
REMARK  206  A    between atoms: _494  and  _496
REMARK  207  A    between atoms: _496  and  _497
REMARK  208  A    between atoms: _496  and  _499
REMARK  209  A    between atoms: _502  and  _504
REMARK  210  A    between atoms: _504  and  _505
REMARK  211  A    between atoms: _504  and  _507
REMARK  212  A    between atoms: _507  and  _508
REMARK  213  A    between atoms: _511  and  _513
REMARK  214  A    between atoms: _513  and  _514
REMARK  215  A    between atoms: _513  and  _516
REMARK  216  A    between atoms: _516  and  _517
REMARK  217  A    between atoms: _517  and  _518
REMARK  218  A    between atoms: _518  and  _519
REMARK                            x       y       z     vdW  Elec       q    Type
REMARK                         _______ _______ _______ _____ _____    ______ ____
ROOT
ATOM      1  O   HOH     1       8.496  16.148 101.801  0.00  0.00    +0.000 OA
ENDROOT
TORSDOF 0
REMARK  Name = ../refined-set-2016/4leq/4leq_pocket.pdb
REMARK  218 active torsions:
REMARK  status: ('A' for Active; 'I' for Inactive)
REMARK    1  A    between atoms: _1  and  _3
REMARK    2  A    between atoms: _3  and  _4
REMARK    3  A    between atoms: _3  and  _6
REMARK    4  A    between atoms: _6  and  _7
REMARK    5  A    between atoms: _7  and  _8
REMARK    6  A    between atoms: _11  and  _12
REMARK    7  A    between atoms: _17  and  _19
REMARK    8  A    between atoms: _19  and  _20
REMARK    9  A    between atoms: _19  and  _22
REMARK   10  A    between atoms: _25  and  _27
REMARK   11  A    between atoms: _27  and  _28
REMARK   12  A    between atoms: _30  and  _32
REMARK   13  A    between atoms: _32  and  _33
REMARK   14  A    between atoms: _32  and  _35
REMARK   15  A    between atoms: _35  and  _36
REMARK   16  A    between atoms: _39  and  _41
REMARK   17  A    between atoms: _41  and  _42
REMARK   18  A    between atoms: _45  and  _47
REMARK   19  A    between atoms: _47  and  _48
REMARK   20  A    between atoms: _47  and  _50
REMARK   21  A    between atoms: _50  and  _51
REMARK   22  A    between atoms: _54  and  _56
REMARK   23  A    between atoms: _56  and  _57
REMARK   24  A    between atoms: _59  and  _61
REMARK   25  A    between atoms: _61  and  _62
REMARK   26  A    between atoms: _61  and  _64
REMARK   27  A    between atoms: _64  and  _65
REMARK   28  A    between atoms: _70  and  _72
REMARK   29  A    between atoms: _72  and  _73
REMARK   30  A    between atoms: _72  and  _75
REMARK   31  A    between atoms: _75  and  _76
REMARK   32  A    between atoms: _79  and  _81
REMARK   33  A    between atoms: _81  and  _82
REMARK   34  A    between atoms: _81  and  _84
REMARK   35  A    between atoms: _84  and  _85
REMARK   36  A    between atoms: _90  and  _91
REMARK   37  A    between atoms: _93  and  _95
REMARK   38  A    between atoms: _95  and  _96
REMARK   39  A    between atoms: _95  and  _98
REMARK   40  A    between atoms: _98  and  _99
REMARK   41  A    between atoms: _104  and  _106
REMARK   42  A    between atoms: _106  and  _107
REMARK   43  A    between atoms: _106  and  _109
REMARK   44  A    between atoms: _109  and  _110
REMARK   45  A    between atoms: _113  and  _115
REMARK   46  A    between atoms: _115  and  _116
REMARK   47  A    between atoms: _115  and  _118
REMARK   48  A    between atoms: _118  and  _119
REMARK   49  A    between atoms: _122  and  _124
REMARK   50  A    between atoms: _124  and  _125
REMARK   51  A    between atoms: _124  and  _127
REMARK   52  A    between atoms: _127  and  _128
REMARK   53  A    between atoms: _131  and  _133
REMARK   54  A    between atoms: _133  and  _134
REMARK   55  A    between atoms: _133  and  _136
REMARK   56  A    between atoms: _136  and  _137
REMARK   57  A    between atoms: _139  and  _141
REMARK   58  A    between atoms: _141  and  _142
REMARK   59  A    between atoms: _144  and  _146
REMARK   60  A    between atoms: _146  and  _147
REMARK   61  A    between atoms: _149  and  _151
REMARK   62  A    between atoms: _151  and  _152
REMARK   63  A    between atoms: _151  and  _154
REMARK   64  A    between atoms: _154  and  _155
REMARK   65  A    between atoms: _160  and  _161
REMARK   66  A    between atoms: _163  and  _165
REMARK   67  A    between atoms: _165  and  _166
REMARK   68  A    between atoms: _165  and  _168
REMARK   69  A    between atoms: _168  and  _169
REMARK   70  A    between atoms: _169  and  _170
REMARK   71  A    between atoms: _175  and  _177
REMARK   72  A    between atoms: _177  and  _178
REMARK   73  A    between atoms: _177  and  _180
REMARK   74  A    between atoms: _183  and  _185
REMARK   75  A    between atoms: _185  and  _186
REMARK   76  A    between atoms: _185  and  _188
REMARK   77  A    between atoms: _188  and  _189
REMARK   78  A    between atoms: _189  and  _190
REMARK   79  A    between atoms: _192  and  _194
REMARK   80  A    between atoms: _194  and  _195
REMARK   81  A    between atoms: _194  and  _197
REMARK   82  A    between atoms: _197  and  _198
REMARK   83  A    between atoms: _200  and  _202
REMARK   84  A    between atoms: _202  and  _203
REMARK   85  A    between atoms: _202  and  _205
REMARK   86  A    between atoms: _205  and  _206
REMARK   87  A    between atoms: _209  and  _211
REMARK   88  A    between atoms: _211  and  _212
REMARK   89  A    between atoms: _211  and  _214
REMARK   90  A    between atoms: _214  and  _215
REMARK   91  A    between atoms: _215  and  _216
REMARK   92  A    between atoms: _221  and  _223
REMARK   93  A    between atoms: _223  and  _224
REMARK   94  A    between atoms: _223  and  _226
REMARK   95  A    between atoms: _226  and  _227
REMARK   96  A    between atoms: _227  and  _228
REMARK   97  A    between atoms: _230  and  _232
REMARK   98  A    between atoms: _232  and  _233
REMARK   99  A    between atoms: _236  and  _238
REMARK  100  A    between atoms: _238  and  _239
REMARK  101  A    between atoms: _238  and  _241
REMARK  102  A    between atoms: _241  and  _242
REMARK  103  A    between atoms: _248  and  _250
REMARK  104  A    between atoms: _250  and  _251
REMARK  105  A    between atoms: _250  and  _253
REMARK  106  A    between atoms: _253  and  _254
REMARK  107  A    between atoms: _257  and  _259
REMARK  108  A    between atoms: _259  and  _260
REMARK  109  A    between atoms: _259  and  _262
REMARK  110  A    between atoms: _262  and  _263
REMARK  111  A    between atoms: _263  and  _264
REMARK  112  A    between atoms: _267  and  _269
REMARK  113  A    between atoms: _269  and  _270
REMARK  114  A    between atoms: _269  and  _272
REMARK  115  A    between atoms: _274  and  _276
REMARK  116  A    between atoms: _276  and  _277
REMARK  117  A    between atoms: _276  and  _279
REMARK  118  A    between atoms: _279  and  _280
REMARK  119  A    between atoms: _283  and  _285
REMARK  120  A    between atoms: _285  and  _286
REMARK  121  A    between atoms: _285  and  _288
REMARK  122  A    between atoms: _288  and  _289
REMARK  123  A    between atoms: _291  and  _293
REMARK  124  A    between atoms: _293  and  _294
REMARK  125  A    between atoms: _293  and  _296
REMARK  126  A    between atoms: _296  and  _297
REMARK  127  A    between atoms: _300  and  _302
REMARK  128  A    between atoms: _302  and  _303
REMARK  129  A    between atoms: _302  and  _305
REMARK  130  A    between atoms: _305  and  _306
REMARK  131  A    between atoms: _306  and  _307
REMARK  132  A    between atoms: _312  and  _314
REMARK  133  A    between atoms: _314  and  _315
REMARK  134  A    between atoms: _314  and  _317
REMARK  135  A    between atoms: _317  and  _318
REMARK  136  A    between atoms: _318  and  _319
REMARK  137  A    between atoms: _324  and  _326
REMARK  138  A    between atoms: _326  and  _327
REMARK  139  A    between atoms: _329  and  _331
REMARK  140  A    between atoms: _331  and  _332
REMARK  141  A    between atoms: _331  and  _334
REMARK  142  A    between atoms: _334  and  _335
REMARK  143  A    between atoms: _337  and  _339
REMARK  144  A    between atoms: _339  and  _340
REMARK  145  A    between atoms: _339  and  _342
REMARK  146  A    between atoms: _342  and  _343
REMARK  147  A    between atoms: _343  and  _344
REMARK  148  A    between atoms: _344  and  _345
REMARK  149  A    between atoms: _354  and  _356
REMARK  150  A    between atoms: _356  and  _357
REMARK  151  A    between atoms: _360  and  _362
REMARK  152  A    between atoms: _362  and  _363
REMARK  153  A    between atoms: _362  and  _365
REMARK  154  A    between atoms: _368  and  _370
REMARK  155  A    between atoms: _370  and  _371
REMARK  156  A    between atoms: _373  and  _375
REMARK  157  A    between atoms: _375  and  _376
REMARK  158  A    between atoms: _378  and  _380
REMARK  159  A    between atoms: _380  and  _381
REMARK  160  A    between atoms: _380  and  _383
REMARK  161  A    between atoms: _383  and  _384
REMARK  162  A    between atoms: _387  and  _389
REMARK  163  A    between atoms: _389  and  _390
REMARK  164  A    between atoms: _393  and  _395
REMARK  165  A    between atoms: _395  and  _396
REMARK  166  A    between atoms: _395  and  _398
REMARK  167  A    between atoms: _401  and  _403
REMARK  168  A    between atoms: _403  and  _404
REMARK  169  A    between atoms: _406  and  _408
REMARK  170  A    between atoms: _408  and  _409
REMARK  171  A    between atoms: _408  and  _411
REMARK  172  A    between atoms: _411  and  _412
REMARK  173  A    between atoms: _412  and  _413
REMARK  174  A    between atoms: _416  and  _418
REMARK  175  A    between atoms: _418  and  _419
REMARK  176  A    between atoms: _418  and  _421
REMARK  177  A    between atoms: _421  and  _422
REMARK  178  A    between atoms: _427  and  _428
REMARK  179  A    between atoms: _430  and  _432
REMARK  180  A    between atoms: _432  and  _433
REMARK  181  A    between atoms: _432  and  _435
REMARK  182  A    between atoms: _435  and  _436
REMARK  183  A    between atoms: _439  and  _441
REMARK  184  A    between atoms: _441  and  _442
REMARK  185  A    between atoms: _441  and  _444
REMARK  186  A    between atoms: _444  and  _445
REMARK  187  A    between atoms: _445  and  _446
REMARK  188  A    between atoms: _448  and  _450
REMARK  189  A    between atoms: _450  and  _451
REMARK  190  A    between atoms: _453  and  _455
REMARK  191  A    between atoms: _455  and  _456
REMARK  192  A    between atoms: _455  and  _458
REMARK  193  A    between atoms: _461  and  _463
REMARK  194  A    between atoms: _463  and  _464
REMARK  195  A    between atoms: _466  and  _468
REMARK  196  A    between atoms: _468  and  _469
REMARK  197  A    between atoms: _468  and  _471
REMARK  198  A    between atoms: _471  and  _472
REMARK  199  A    between atoms: _478  and  _480
REMARK  200  A    between atoms: _480  and  _481
REMARK  201  A    between atoms: _480  and  _483
REMARK  202  A    between atoms: _483  and  _484
REMARK  203  A    between atoms: _487  and  _489
REMARK  204  A    between atoms: _489  and  _490
REMARK  205  A    between atoms: _489  and  _492
REMARK  206  A    between atoms: _494  and  _496
REMARK  207  A    between atoms: _496  and  _497
REMARK  208  A    between atoms: _496  and  _499
REMARK  209  A    between atoms: _502  and  _504
REMARK  210  A    between atoms: _504  and  _505
REMARK  211  A    between atoms: _504  and  _507
REMARK  212  A    between atoms: _507  and  _508
REMARK  213  A    between atoms: _511  and  _513
REMARK  214  A    between atoms: _513  and  _514
REMARK  215  A    between atoms: _513  and  _516
REMARK  216  A    between atoms: _516  and  _517
REMARK  217  A    between atoms: _517  and  _518
REMARK  218  A    between atoms: _518  and  _519
REMARK                            x       y       z     vdW  Elec       q    Type
REMARK                         _______ _______ _______ _____ _____    ______ ____
ROOT
ATOM      1  O   HOH     1      16.191  20.638  95.433  0.00  0.00    +0.000 OA
ENDROOT
TORSDOF 0
REMARK  Name = ../refined-set-2016/4leq/4leq_pocket.pdb
REMARK  218 active torsions:
REMARK  status: ('A' for Active; 'I' for Inactive)
REMARK    1  A    between atoms: _1  and  _3
REMARK    2  A    between atoms: _3  and  _4
REMARK    3  A    between atoms: _3  and  _6
REMARK    4  A    between atoms: _6  and  _7
REMARK    5  A    between atoms: _7  and  _8
REMARK    6  A    between atoms: _11  and  _12
REMARK    7  A    between atoms: _17  and  _19
REMARK    8  A    between atoms: _19  and  _20
REMARK    9  A    between atoms: _19  and  _22
REMARK   10  A    between atoms: _25  and  _27
REMARK   11  A    between atoms: _27  and  _28
REMARK   12  A    between atoms: _30  and  _32
REMARK   13  A    between atoms: _32  and  _33
REMARK   14  A    between atoms: _32  and  _35
REMARK   15  A    between atoms: _35  and  _36
REMARK   16  A    between atoms: _39  and  _41
REMARK   17  A    between atoms: _41  and  _42
REMARK   18  A    between atoms: _45  and  _47
REMARK   19  A    between atoms: _47  and  _48
REMARK   20  A    between atoms: _47  and  _50
REMARK   21  A    between atoms: _50  and  _51
REMARK   22  A    between atoms: _54  and  _56
REMARK   23  A    between atoms: _56  and  _57
REMARK   24  A    between atoms: _59  and  _61
REMARK   25  A    between atoms: _61  and  _62
REMARK   26  A    between atoms: _61  and  _64
REMARK   27  A    between atoms: _64  and  _65
REMARK   28  A    between atoms: _70  and  _72
REMARK   29  A    between atoms: _72  and  _73
REMARK   30  A    between atoms: _72  and  _75
REMARK   31  A    between atoms: _75  and  _76
REMARK   32  A    between atoms: _79  and  _81
REMARK   33  A    between atoms: _81  and  _82
REMARK   34  A    between atoms: _81  and  _84
REMARK   35  A    between atoms: _84  and  _85
REMARK   36  A    between atoms: _90  and  _91
REMARK   37  A    between atoms: _93  and  _95
REMARK   38  A    between atoms: _95  and  _96
REMARK   39  A    between atoms: _95  and  _98
REMARK   40  A    between atoms: _98  and  _99
REMARK   41  A    between atoms: _104  and  _106
REMARK   42  A    between atoms: _106  and  _107
REMARK   43  A    between atoms: _106  and  _109
REMARK   44  A    between atoms: _109  and  _110
REMARK   45  A    between atoms: _113  and  _115
REMARK   46  A    between atoms: _115  and  _116
REMARK   47  A    between atoms: _115  and  _118
REMARK   48  A    between atoms: _118  and  _119
REMARK   49  A    between atoms: _122  and  _124
REMARK   50  A    between atoms: _124  and  _125
REMARK   51  A    between atoms: _124  and  _127
REMARK   52  A    between atoms: _127  and  _128
REMARK   53  A    between atoms: _131  and  _133
REMARK   54  A    between atoms: _133  and  _134
REMARK   55  A    between atoms: _133  and  _136
REMARK   56  A    between atoms: _136  and  _137
REMARK   57  A    between atoms: _139  and  _141
REMARK   58  A    between atoms: _141  and  _142
REMARK   59  A    between atoms: _144  and  _146
REMARK   60  A    between atoms: _146  and  _147
REMARK   61  A    between atoms: _149  and  _151
REMARK   62  A    between atoms: _151  and  _152
REMARK   63  A    between atoms: _151  and  _154
REMARK   64  A    between atoms: _154  and  _155
REMARK   65  A    between atoms: _160  and  _161
REMARK   66  A    between atoms: _163  and  _165
REMARK   67  A    between atoms: _165  and  _166
REMARK   68  A    between atoms: _165  and  _168
REMARK   69  A    between atoms: _168  and  _169
REMARK   70  A    between atoms: _169  and  _170
REMARK   71  A    between atoms: _175  and  _177
REMARK   72  A    between atoms: _177  and  _178
REMARK   73  A    between atoms: _177  and  _180
REMARK   74  A    between atoms: _183  and  _185
REMARK   75  A    between atoms: _185  and  _186
REMARK   76  A    between atoms: _185  and  _188
REMARK   77  A    between atoms: _188  and  _189
REMARK   78  A    between atoms: _189  and  _190
REMARK   79  A    between atoms: _192  and  _194
REMARK   80  A    between atoms: _194  and  _195
REMARK   81  A    between atoms: _194  and  _197
REMARK   82  A    between atoms: _197  and  _198
REMARK   83  A    between atoms: _200  and  _202
REMARK   84  A    between atoms: _202  and  _203
REMARK   85  A    between atoms: _202  and  _205
REMARK   86  A    between atoms: _205  and  _206
REMARK   87  A    between atoms: _209  and  _211
REMARK   88  A    between atoms: _211  and  _212
REMARK   89  A    between atoms: _211  and  _214
REMARK   90  A    between atoms: _214  and  _215
REMARK   91  A    between atoms: _215  and  _216
REMARK   92  A    between atoms: _221  and  _223
REMARK   93  A    between atoms: _223  and  _224
REMARK   94  A    between atoms: _223  and  _226
REMARK   95  A    between atoms: _226  and  _227
REMARK   96  A    between atoms: _227  and  _228
REMARK   97  A    between atoms: _230  and  _232
REMARK   98  A    between atoms: _232  and  _233
REMARK   99  A    between atoms: _236  and  _238
REMARK  100  A    between atoms: _238  and  _239
REMARK  101  A    between atoms: _238  and  _241
REMARK  102  A    between atoms: _241  and  _242
REMARK  103  A    between atoms: _248  and  _250
REMARK  104  A    between atoms: _250  and  _251
REMARK  105  A    between atoms: _250  and  _253
REMARK  106  A    between atoms: _253  and  _254
REMARK  107  A    between atoms: _257  and  _259
REMARK  108  A    between atoms: _259  and  _260
REMARK  109  A    between atoms: _259  and  _262
REMARK  110  A    between atoms: _262  and  _263
REMARK  111  A    between atoms: _263  and  _264
REMARK  112  A    between atoms: _267  and  _269
REMARK  113  A    between atoms: _269  and  _270
REMARK  114  A    between atoms: _269  and  _272
REMARK  115  A    between atoms: _274  and  _276
REMARK  116  A    between atoms: _276  and  _277
REMARK  117  A    between atoms: _276  and  _279
REMARK  118  A    between atoms: _279  and  _280
REMARK  119  A    between atoms: _283  and  _285
REMARK  120  A    between atoms: _285  and  _286
REMARK  121  A    between atoms: _285  and  _288
REMARK  122  A    between atoms: _288  and  _289
REMARK  123  A    between atoms: _291  and  _293
REMARK  124  A    between atoms: _293  and  _294
REMARK  125  A    between atoms: _293  and  _296
REMARK  126  A    between atoms: _296  and  _297
REMARK  127  A    between atoms: _300  and  _302
REMARK  128  A    between atoms: _302  and  _303
REMARK  129  A    between atoms: _302  and  _305
REMARK  130  A    between atoms: _305  and  _306
REMARK  131  A    between atoms: _306  and  _307
REMARK  132  A    between atoms: _312  and  _314
REMARK  133  A    between atoms: _314  and  _315
REMARK  134  A    between atoms: _314  and  _317
REMARK  135  A    between atoms: _317  and  _318
REMARK  136  A    between atoms: _318  and  _319
REMARK  137  A    between atoms: _324  and  _326
REMARK  138  A    between atoms: _326  and  _327
REMARK  139  A    between atoms: _329  and  _331
REMARK  140  A    between atoms: _331  and  _332
REMARK  141  A    between atoms: _331  and  _334
REMARK  142  A    between atoms: _334  and  _335
REMARK  143  A    between atoms: _337  and  _339
REMARK  144  A    between atoms: _339  and  _340
REMARK  145  A    between atoms: _339  and  _342
REMARK  146  A    between atoms: _342  and  _343
REMARK  147  A    between atoms: _343  and  _344
REMARK  148  A    between atoms: _344  and  _345
REMARK  149  A    between atoms: _354  and  _356
REMARK  150  A    between atoms: _356  and  _357
REMARK  151  A    between atoms: _360  and  _362
REMARK  152  A    between atoms: _362  and  _363
REMARK  153  A    between atoms: _362  and  _365
REMARK  154  A    between atoms: _368  and  _370
REMARK  155  A    between atoms: _370  and  _371
REMARK  156  A    between atoms: _373  and  _375
REMARK  157  A    between atoms: _375  and  _376
REMARK  158  A    between atoms: _378  and  _380
REMARK  159  A    between atoms: _380  and  _381
REMARK  160  A    between atoms: _380  and  _383
REMARK  161  A    between atoms: _383  and  _384
REMARK  162  A    between atoms: _387  and  _389
REMARK  163  A    between atoms: _389  and  _390
REMARK  164  A    between atoms: _393  and  _395
REMARK  165  A    between atoms: _395  and  _396
REMARK  166  A    between atoms: _395  and  _398
REMARK  167  A    between atoms: _401  and  _403
REMARK  168  A    between atoms: _403  and  _404
REMARK  169  A    between atoms: _406  and  _408
REMARK  170  A    between atoms: _408  and  _409
REMARK  171  A    between atoms: _408  and  _411
REMARK  172  A    between atoms: _411  and  _412
REMARK  173  A    between atoms: _412  and  _413
REMARK  174  A    between atoms: _416  and  _418
REMARK  175  A    between atoms: _418  and  _419
REMARK  176  A    between atoms: _418  and  _421
REMARK  177  A    between atoms: _421  and  _422
REMARK  178  A    between atoms: _427  and  _428
REMARK  179  A    between atoms: _430  and  _432
REMARK  180  A    between atoms: _432  and  _433
REMARK  181  A    between atoms: _432  and  _435
REMARK  182  A    between atoms: _435  and  _436
REMARK  183  A    between atoms: _439  and  _441
REMARK  184  A    between atoms: _441  and  _442
REMARK  185  A    between atoms: _441  and  _444
REMARK  186  A    between atoms: _444  and  _445
REMARK  187  A    between atoms: _445  and  _446
REMARK  188  A    between atoms: _448  and  _450
REMARK  189  A    between atoms: _450  and  _451
REMARK  190  A    between atoms: _453  and  _455
REMARK  191  A    between atoms: _455  and  _456
REMARK  192  A    between atoms: _455  and  _458
REMARK  193  A    between atoms: _461  and  _463
REMARK  194  A    between atoms: _463  and  _464
REMARK  195  A    between atoms: _466  and  _468
REMARK  196  A    between atoms: _468  and  _469
REMARK  197  A    between atoms: _468  and  _471
REMARK  198  A    between atoms: _471  and  _472
REMARK  199  A    between atoms: _478  and  _480
REMARK  200  A    between atoms: _480  and  _481
REMARK  201  A    between atoms: _480  and  _483
REMARK  202  A    between atoms: _483  and  _484
REMARK  203  A    between atoms: _487  and  _489
REMARK  204  A    between atoms: _489  and  _490
REMARK  205  A    between atoms: _489  and  _492
REMARK  206  A    between atoms: _494  and  _496
REMARK  207  A    between atoms: _496  and  _497
REMARK  208  A    between atoms: _496  and  _499
REMARK  209  A    between atoms: _502  and  _504
REMARK  210  A    between atoms: _504  and  _505
REMARK  211  A    between atoms: _504  and  _507
REMARK  212  A    between atoms: _507  and  _508
REMARK  213  A    between atoms: _511  and  _513
REMARK  214  A    between atoms: _513  and  _514
REMARK  215  A    between atoms: _513  and  _516
REMARK  216  A    between atoms: _516  and  _517
REMARK  217  A    between atoms: _517  and  _518
REMARK  218  A    between atoms: _518  and  _519
REMARK                            x       y       z     vdW  Elec       q    Type
REMARK                         _______ _______ _______ _____ _____    ______ ____
ROOT
ATOM      1  O   HOH     1      16.023  22.131  93.057  0.00  0.00    +0.000 OA
ENDROOT
TORSDOF 0
REMARK  Name = ../refined-set-2016/4leq/4leq_pocket.pdb
REMARK  218 active torsions:
REMARK  status: ('A' for Active; 'I' for Inactive)
REMARK    1  A    between atoms: _1  and  _3
REMARK    2  A    between atoms: _3  and  _4
REMARK    3  A    between atoms: _3  and  _6
REMARK    4  A    between atoms: _6  and  _7
REMARK    5  A    between atoms: _7  and  _8
REMARK    6  A    between atoms: _11  and  _12
REMARK    7  A    between atoms: _17  and  _19
REMARK    8  A    between atoms: _19  and  _20
REMARK    9  A    between atoms: _19  and  _22
REMARK   10  A    between atoms: _25  and  _27
REMARK   11  A    between atoms: _27  and  _28
REMARK   12  A    between atoms: _30  and  _32
REMARK   13  A    between atoms: _32  and  _33
REMARK   14  A    between atoms: _32  and  _35
REMARK   15  A    between atoms: _35  and  _36
REMARK   16  A    between atoms: _39  and  _41
REMARK   17  A    between atoms: _41  and  _42
REMARK   18  A    between atoms: _45  and  _47
REMARK   19  A    between atoms: _47  and  _48
REMARK   20  A    between atoms: _47  and  _50
REMARK   21  A    between atoms: _50  and  _51
REMARK   22  A    between atoms: _54  and  _56
REMARK   23  A    between atoms: _56  and  _57
REMARK   24  A    between atoms: _59  and  _61
REMARK   25  A    between atoms: _61  and  _62
REMARK   26  A    between atoms: _61  and  _64
REMARK   27  A    between atoms: _64  and  _65
REMARK   28  A    between atoms: _70  and  _72
REMARK   29  A    between atoms: _72  and  _73
REMARK   30  A    between atoms: _72  and  _75
REMARK   31  A    between atoms: _75  and  _76
REMARK   32  A    between atoms: _79  and  _81
REMARK   33  A    between atoms: _81  and  _82
REMARK   34  A    between atoms: _81  and  _84
REMARK   35  A    between atoms: _84  and  _85
REMARK   36  A    between atoms: _90  and  _91
REMARK   37  A    between atoms: _93  and  _95
REMARK   38  A    between atoms: _95  and  _96
REMARK   39  A    between atoms: _95  and  _98
REMARK   40  A    between atoms: _98  and  _99
REMARK   41  A    between atoms: _104  and  _106
REMARK   42  A    between atoms: _106  and  _107
REMARK   43  A    between atoms: _106  and  _109
REMARK   44  A    between atoms: _109  and  _110
REMARK   45  A    between atoms: _113  and  _115
REMARK   46  A    between atoms: _115  and  _116
REMARK   47  A    between atoms: _115  and  _118
REMARK   48  A    between atoms: _118  and  _119
REMARK   49  A    between atoms: _122  and  _124
REMARK   50  A    between atoms: _124  and  _125
REMARK   51  A    between atoms: _124  and  _127
REMARK   52  A    between atoms: _127  and  _128
REMARK   53  A    between atoms: _131  and  _133
REMARK   54  A    between atoms: _133  and  _134
REMARK   55  A    between atoms: _133  and  _136
REMARK   56  A    between atoms: _136  and  _137
REMARK   57  A    between atoms: _139  and  _141
REMARK   58  A    between atoms: _141  and  _142
REMARK   59  A    between atoms: _144  and  _146
REMARK   60  A    between atoms: _146  and  _147
REMARK   61  A    between atoms: _149  and  _151
REMARK   62  A    between atoms: _151  and  _152
REMARK   63  A    between atoms: _151  and  _154
REMARK   64  A    between atoms: _154  and  _155
REMARK   65  A    between atoms: _160  and  _161
REMARK   66  A    between atoms: _163  and  _165
REMARK   67  A    between atoms: _165  and  _166
REMARK   68  A    between atoms: _165  and  _168
REMARK   69  A    between atoms: _168  and  _169
REMARK   70  A    between atoms: _169  and  _170
REMARK   71  A    between atoms: _175  and  _177
REMARK   72  A    between atoms: _177  and  _178
REMARK   73  A    between atoms: _177  and  _180
REMARK   74  A    between atoms: _183  and  _185
REMARK   75  A    between atoms: _185  and  _186
REMARK   76  A    between atoms: _185  and  _188
REMARK   77  A    between atoms: _188  and  _189
REMARK   78  A    between atoms: _189  and  _190
REMARK   79  A    between atoms: _192  and  _194
REMARK   80  A    between atoms: _194  and  _195
REMARK   81  A    between atoms: _194  and  _197
REMARK   82  A    between atoms: _197  and  _198
REMARK   83  A    between atoms: _200  and  _202
REMARK   84  A    between atoms: _202  and  _203
REMARK   85  A    between atoms: _202  and  _205
REMARK   86  A    between atoms: _205  and  _206
REMARK   87  A    between atoms: _209  and  _211
REMARK   88  A    between atoms: _211  and  _212
REMARK   89  A    between atoms: _211  and  _214
REMARK   90  A    between atoms: _214  and  _215
REMARK   91  A    between atoms: _215  and  _216
REMARK   92  A    between atoms: _221  and  _223
REMARK   93  A    between atoms: _223  and  _224
REMARK   94  A    between atoms: _223  and  _226
REMARK   95  A    between atoms: _226  and  _227
REMARK   96  A    between atoms: _227  and  _228
REMARK   97  A    between atoms: _230  and  _232
REMARK   98  A    between atoms: _232  and  _233
REMARK   99  A    between atoms: _236  and  _238
REMARK  100  A    between atoms: _238  and  _239
REMARK  101  A    between atoms: _238  and  _241
REMARK  102  A    between atoms: _241  and  _242
REMARK  103  A    between atoms: _248  and  _250
REMARK  104  A    between atoms: _250  and  _251
REMARK  105  A    between atoms: _250  and  _253
REMARK  106  A    between atoms: _253  and  _254
REMARK  107  A    between atoms: _257  and  _259
REMARK  108  A    between atoms: _259  and  _260
REMARK  109  A    between atoms: _259  and  _262
REMARK  110  A    between atoms: _262  and  _263
REMARK  111  A    between atoms: _263  and  _264
REMARK  112  A    between atoms: _267  and  _269
REMARK  113  A    between atoms: _269  and  _270
REMARK  114  A    between atoms: _269  and  _272
REMARK  115  A    between atoms: _274  and  _276
REMARK  116  A    between atoms: _276  and  _277
REMARK  117  A    between atoms: _276  and  _279
REMARK  118  A    between atoms: _279  and  _280
REMARK  119  A    between atoms: _283  and  _285
REMARK  120  A    between atoms: _285  and  _286
REMARK  121  A    between atoms: _285  and  _288
REMARK  122  A    between atoms: _288  and  _289
REMARK  123  A    between atoms: _291  and  _293
REMARK  124  A    between atoms: _293  and  _294
REMARK  125  A    between atoms: _293  and  _296
REMARK  126  A    between atoms: _296  and  _297
REMARK  127  A    between atoms: _300  and  _302
REMARK  128  A    between atoms: _302  and  _303
REMARK  129  A    between atoms: _302  and  _305
REMARK  130  A    between atoms: _305  and  _306
REMARK  131  A    between atoms: _306  and  _307
REMARK  132  A    between atoms: _312  and  _314
REMARK  133  A    between atoms: _314  and  _315
REMARK  134  A    between atoms: _314  and  _317
REMARK  135  A    between atoms: _317  and  _318
REMARK  136  A    between atoms: _318  and  _319
REMARK  137  A    between atoms: _324  and  _326
REMARK  138  A    between atoms: _326  and  _327
REMARK  139  A    between atoms: _329  and  _331
REMARK  140  A    between atoms: _331  and  _332
REMARK  141  A    between atoms: _331  and  _334
REMARK  142  A    between atoms: _334  and  _335
REMARK  143  A    between atoms: _337  and  _339
REMARK  144  A    between atoms: _339  and  _340
REMARK  145  A    between atoms: _339  and  _342
REMARK  146  A    between atoms: _342  and  _343
REMARK  147  A    between atoms: _343  and  _344
REMARK  148  A    between atoms: _344  and  _345
REMARK  149  A    between atoms: _354  and  _356
REMARK  150  A    between atoms: _356  and  _357
REMARK  151  A    between atoms: _360  and  _362
REMARK  152  A    between atoms: _362  and  _363
REMARK  153  A    between atoms: _362  and  _365
REMARK  154  A    between atoms: _368  and  _370
REMARK  155  A    between atoms: _370  and  _371
REMARK  156  A    between atoms: _373  and  _375
REMARK  157  A    between atoms: _375  and  _376
REMARK  158  A    between atoms: _378  and  _380
REMARK  159  A    between atoms: _380  and  _381
REMARK  160  A    between atoms: _380  and  _383
REMARK  161  A    between atoms: _383  and  _384
REMARK  162  A    between atoms: _387  and  _389
REMARK  163  A    between atoms: _389  and  _390
REMARK  164  A    between atoms: _393  and  _395
REMARK  165  A    between atoms: _395  and  _396
REMARK  166  A    between atoms: _395  and  _398
REMARK  167  A    between atoms: _401  and  _403
REMARK  168  A    between atoms: _403  and  _404
REMARK  169  A    between atoms: _406  and  _408
REMARK  170  A    between atoms: _408  and  _409
REMARK  171  A    between atoms: _408  and  _411
REMARK  172  A    between atoms: _411  and  _412
REMARK  173  A    between atoms: _412  and  _413
REMARK  174  A    between atoms: _416  and  _418
REMARK  175  A    between atoms: _418  and  _419
REMARK  176  A    between atoms: _418  and  _421
REMARK  177  A    between atoms: _421  and  _422
REMARK  178  A    between atoms: _427  and  _428
REMARK  179  A    between atoms: _430  and  _432
REMARK  180  A    between atoms: _432  and  _433
REMARK  181  A    between atoms: _432  and  _435
REMARK  182  A    between atoms: _435  and  _436
REMARK  183  A    between atoms: _439  and  _441
REMARK  184  A    between atoms: _441  and  _442
REMARK  185  A    between atoms: _441  and  _444
REMARK  186  A    between atoms: _444  and  _445
REMARK  187  A    between atoms: _445  and  _446
REMARK  188  A    between atoms: _448  and  _450
REMARK  189  A    between atoms: _450  and  _451
REMARK  190  A    between atoms: _453  and  _455
REMARK  191  A    between atoms: _455  and  _456
REMARK  192  A    between atoms: _455  and  _458
REMARK  193  A    between atoms: _461  and  _463
REMARK  194  A    between atoms: _463  and  _464
REMARK  195  A    between atoms: _466  and  _468
REMARK  196  A    between atoms: _468  and  _469
REMARK  197  A    between atoms: _468  and  _471
REMARK  198  A    between atoms: _471  and  _472
REMARK  199  A    between atoms: _478  and  _480
REMARK  200  A    between atoms: _480  and  _481
REMARK  201  A    between atoms: _480  and  _483
REMARK  202  A    between atoms: _483  and  _484
REMARK  203  A    between atoms: _487  and  _489
REMARK  204  A    between atoms: _489  and  _490
REMARK  205  A    between atoms: _489  and  _492
REMARK  206  A    between atoms: _494  and  _496
REMARK  207  A    between atoms: _496  and  _497
REMARK  208  A    between atoms: _496  and  _499
REMARK  209  A    between atoms: _502  and  _504
REMARK  210  A    between atoms: _504  and  _505
REMARK  211  A    between atoms: _504  and  _507
REMARK  212  A    between atoms: _507  and  _508
REMARK  213  A    between atoms: _511  and  _513
REMARK  214  A    between atoms: _513  and  _514
REMARK  215  A    between atoms: _513  and  _516
REMARK  216  A    between atoms: _516  and  _517
REMARK  217  A    between atoms: _517  and  _518
REMARK  218  A    between atoms: _518  and  _519
REMARK                            x       y       z     vdW  Elec       q    Type
REMARK                         _______ _______ _______ _____ _____    ______ ____
ROOT
ATOM      1  O   HOH     1      12.622  21.345  99.282  0.00  0.00    +0.000 OA
ENDROOT
TORSDOF 0
REMARK  Name = ../refined-set-2016/4leq/4leq_pocket.pdb
REMARK  218 active torsions:
REMARK  status: ('A' for Active; 'I' for Inactive)
REMARK    1  A    between atoms: _1  and  _3
REMARK    2  A    between atoms: _3  and  _4
REMARK    3  A    between atoms: _3  and  _6
REMARK    4  A    between atoms: _6  and  _7
REMARK    5  A    between atoms: _7  and  _8
REMARK    6  A    between atoms: _11  and  _12
REMARK    7  A    between atoms: _17  and  _19
REMARK    8  A    between atoms: _19  and  _20
REMARK    9  A    between atoms: _19  and  _22
REMARK   10  A    between atoms: _25  and  _27
REMARK   11  A    between atoms: _27  and  _28
REMARK   12  A    between atoms: _30  and  _32
REMARK   13  A    between atoms: _32  and  _33
REMARK   14  A    between atoms: _32  and  _35
REMARK   15  A    between atoms: _35  and  _36
REMARK   16  A    between atoms: _39  and  _41
REMARK   17  A    between atoms: _41  and  _42
REMARK   18  A    between atoms: _45  and  _47
REMARK   19  A    between atoms: _47  and  _48
REMARK   20  A    between atoms: _47  and  _50
REMARK   21  A    between atoms: _50  and  _51
REMARK   22  A    between atoms: _54  and  _56
REMARK   23  A    between atoms: _56  and  _57
REMARK   24  A    between atoms: _59  and  _61
REMARK   25  A    between atoms: _61  and  _62
REMARK   26  A    between atoms: _61  and  _64
REMARK   27  A    between atoms: _64  and  _65
REMARK   28  A    between atoms: _70  and  _72
REMARK   29  A    between atoms: _72  and  _73
REMARK   30  A    between atoms: _72  and  _75
REMARK   31  A    between atoms: _75  and  _76
REMARK   32  A    between atoms: _79  and  _81
REMARK   33  A    between atoms: _81  and  _82
REMARK   34  A    between atoms: _81  and  _84
REMARK   35  A    between atoms: _84  and  _85
REMARK   36  A    between atoms: _90  and  _91
REMARK   37  A    between atoms: _93  and  _95
REMARK   38  A    between atoms: _95  and  _96
REMARK   39  A    between atoms: _95  and  _98
REMARK   40  A    between atoms: _98  and  _99
REMARK   41  A    between atoms: _104  and  _106
REMARK   42  A    between atoms: _106  and  _107
REMARK   43  A    between atoms: _106  and  _109
REMARK   44  A    between atoms: _109  and  _110
REMARK   45  A    between atoms: _113  and  _115
REMARK   46  A    between atoms: _115  and  _116
REMARK   47  A    between atoms: _115  and  _118
REMARK   48  A    between atoms: _118  and  _119
REMARK   49  A    between atoms: _122  and  _124
REMARK   50  A    between atoms: _124  and  _125
REMARK   51  A    between atoms: _124  and  _127
REMARK   52  A    between atoms: _127  and  _128
REMARK   53  A    between atoms: _131  and  _133
REMARK   54  A    between atoms: _133  and  _134
REMARK   55  A    between atoms: _133  and  _136
REMARK   56  A    between atoms: _136  and  _137
REMARK   57  A    between atoms: _139  and  _141
REMARK   58  A    between atoms: _141  and  _142
REMARK   59  A    between atoms: _144  and  _146
REMARK   60  A    between atoms: _146  and  _147
REMARK   61  A    between atoms: _149  and  _151
REMARK   62  A    between atoms: _151  and  _152
REMARK   63  A    between atoms: _151  and  _154
REMARK   64  A    between atoms: _154  and  _155
REMARK   65  A    between atoms: _160  and  _161
REMARK   66  A    between atoms: _163  and  _165
REMARK   67  A    between atoms: _165  and  _166
REMARK   68  A    between atoms: _165  and  _168
REMARK   69  A    between atoms: _168  and  _169
REMARK   70  A    between atoms: _169  and  _170
REMARK   71  A    between atoms: _175  and  _177
REMARK   72  A    between atoms: _177  and  _178
REMARK   73  A    between atoms: _177  and  _180
REMARK   74  A    between atoms: _183  and  _185
REMARK   75  A    between atoms: _185  and  _186
REMARK   76  A    between atoms: _185  and  _188
REMARK   77  A    between atoms: _188  and  _189
REMARK   78  A    between atoms: _189  and  _190
REMARK   79  A    between atoms: _192  and  _194
REMARK   80  A    between atoms: _194  and  _195
REMARK   81  A    between atoms: _194  and  _197
REMARK   82  A    between atoms: _197  and  _198
REMARK   83  A    between atoms: _200  and  _202
REMARK   84  A    between atoms: _202  and  _203
REMARK   85  A    between atoms: _202  and  _205
REMARK   86  A    between atoms: _205  and  _206
REMARK   87  A    between atoms: _209  and  _211
REMARK   88  A    between atoms: _211  and  _212
REMARK   89  A    between atoms: _211  and  _214
REMARK   90  A    between atoms: _214  and  _215
REMARK   91  A    between atoms: _215  and  _216
REMARK   92  A    between atoms: _221  and  _223
REMARK   93  A    between atoms: _223  and  _224
REMARK   94  A    between atoms: _223  and  _226
REMARK   95  A    between atoms: _226  and  _227
REMARK   96  A    between atoms: _227  and  _228
REMARK   97  A    between atoms: _230  and  _232
REMARK   98  A    between atoms: _232  and  _233
REMARK   99  A    between atoms: _236  and  _238
REMARK  100  A    between atoms: _238  and  _239
REMARK  101  A    between atoms: _238  and  _241
REMARK  102  A    between atoms: _241  and  _242
REMARK  103  A    between atoms: _248  and  _250
REMARK  104  A    between atoms: _250  and  _251
REMARK  105  A    between atoms: _250  and  _253
REMARK  106  A    between atoms: _253  and  _254
REMARK  107  A    between atoms: _257  and  _259
REMARK  108  A    between atoms: _259  and  _260
REMARK  109  A    between atoms: _259  and  _262
REMARK  110  A    between atoms: _262  and  _263
REMARK  111  A    between atoms: _263  and  _264
REMARK  112  A    between atoms: _267  and  _269
REMARK  113  A    between atoms: _269  and  _270
REMARK  114  A    between atoms: _269  and  _272
REMARK  115  A    between atoms: _274  and  _276
REMARK  116  A    between atoms: _276  and  _277
REMARK  117  A    between atoms: _276  and  _279
REMARK  118  A    between atoms: _279  and  _280
REMARK  119  A    between atoms: _283  and  _285
REMARK  120  A    between atoms: _285  and  _286
REMARK  121  A    between atoms: _285  and  _288
REMARK  122  A    between atoms: _288  and  _289
REMARK  123  A    between atoms: _291  and  _293
REMARK  124  A    between atoms: _293  and  _294
REMARK  125  A    between atoms: _293  and  _296
REMARK  126  A    between atoms: _296  and  _297
REMARK  127  A    between atoms: _300  and  _302
REMARK  128  A    between atoms: _302  and  _303
REMARK  129  A    between atoms: _302  and  _305
REMARK  130  A    between atoms: _305  and  _306
REMARK  131  A    between atoms: _306  and  _307
REMARK  132  A    between atoms: _312  and  _314
REMARK  133  A    between atoms: _314  and  _315
REMARK  134  A    between atoms: _314  and  _317
REMARK  135  A    between atoms: _317  and  _318
REMARK  136  A    between atoms: _318  and  _319
REMARK  137  A    between atoms: _324  and  _326
REMARK  138  A    between atoms: _326  and  _327
REMARK  139  A    between atoms: _329  and  _331
REMARK  140  A    between atoms: _331  and  _332
REMARK  141  A    between atoms: _331  and  _334
REMARK  142  A    between atoms: _334  and  _335
REMARK  143  A    between atoms: _337  and  _339
REMARK  144  A    between atoms: _339  and  _340
REMARK  145  A    between atoms: _339  and  _342
REMARK  146  A    between atoms: _342  and  _343
REMARK  147  A    between atoms: _343  and  _344
REMARK  148  A    between atoms: _344  and  _345
REMARK  149  A    between atoms: _354  and  _356
REMARK  150  A    between atoms: _356  and  _357
REMARK  151  A    between atoms: _360  and  _362
REMARK  152  A    between atoms: _362  and  _363
REMARK  153  A    between atoms: _362  and  _365
REMARK  154  A    between atoms: _368  and  _370
REMARK  155  A    between atoms: _370  and  _371
REMARK  156  A    between atoms: _373  and  _375
REMARK  157  A    between atoms: _375  and  _376
REMARK  158  A    between atoms: _378  and  _380
REMARK  159  A    between atoms: _380  and  _381
REMARK  160  A    between atoms: _380  and  _383
REMARK  161  A    between atoms: _383  and  _384
REMARK  162  A    between atoms: _387  and  _389
REMARK  163  A    between atoms: _389  and  _390
REMARK  164  A    between atoms: _393  and  _395
REMARK  165  A    between atoms: _395  and  _396
REMARK  166  A    between atoms: _395  and  _398
REMARK  167  A    between atoms: _401  and  _403
REMARK  168  A    between atoms: _403  and  _404
REMARK  169  A    between atoms: _406  and  _408
REMARK  170  A    between atoms: _408  and  _409
REMARK  171  A    between atoms: _408  and  _411
REMARK  172  A    between atoms: _411  and  _412
REMARK  173  A    between atoms: _412  and  _413
REMARK  174  A    between atoms: _416  and  _418
REMARK  175  A    between atoms: _418  and  _419
REMARK  176  A    between atoms: _418  and  _421
REMARK  177  A    between atoms: _421  and  _422
REMARK  178  A    between atoms: _427  and  _428
REMARK  179  A    between atoms: _430  and  _432
REMARK  180  A    between atoms: _432  and  _433
REMARK  181  A    between atoms: _432  and  _435
REMARK  182  A    between atoms: _435  and  _436
REMARK  183  A    between atoms: _439  and  _441
REMARK  184  A    between atoms: _441  and  _442
REMARK  185  A    between atoms: _441  and  _444
REMARK  186  A    between atoms: _444  and  _445
REMARK  187  A    between atoms: _445  and  _446
REMARK  188  A    between atoms: _448  and  _450
REMARK  189  A    between atoms: _450  and  _451
REMARK  190  A    between atoms: _453  and  _455
REMARK  191  A    between atoms: _455  and  _456
REMARK  192  A    between atoms: _455  and  _458
REMARK  193  A    between atoms: _461  and  _463
REMARK  194  A    between atoms: _463  and  _464
REMARK  195  A    between atoms: _466  and  _468
REMARK  196  A    between atoms: _468  and  _469
REMARK  197  A    between atoms: _468  and  _471
REMARK  198  A    between atoms: _471  and  _472
REMARK  199  A    between atoms: _478  and  _480
REMARK  200  A    between atoms: _480  and  _481
REMARK  201  A    between atoms: _480  and  _483
REMARK  202  A    between atoms: _483  and  _484
REMARK  203  A    between atoms: _487  and  _489
REMARK  204  A    between atoms: _489  and  _490
REMARK  205  A    between atoms: _489  and  _492
REMARK  206  A    between atoms: _494  and  _496
REMARK  207  A    between atoms: _496  and  _497
REMARK  208  A    between atoms: _496  and  _499
REMARK  209  A    between atoms: _502  and  _504
REMARK  210  A    between atoms: _504  and  _505
REMARK  211  A    between atoms: _504  and  _507
REMARK  212  A    between atoms: _507  and  _508
REMARK  213  A    between atoms: _511  and  _513
REMARK  214  A    between atoms: _513  and  _514
REMARK  215  A    between atoms: _513  and  _516
REMARK  216  A    between atoms: _516  and  _517
REMARK  217  A    between atoms: _517  and  _518
REMARK  218  A    between atoms: _518  and  _519
REMARK                            x       y       z     vdW  Elec       q    Type
REMARK                         _______ _______ _______ _____ _____    ______ ____
ROOT
ATOM      1  O   HOH     1       7.497  16.267  82.707  0.00  0.00    +0.000 OA
ENDROOT
TORSDOF 0
REMARK  Name = ../refined-set-2016/4leq/4leq_pocket.pdb
REMARK  218 active torsions:
REMARK  status: ('A' for Active; 'I' for Inactive)
REMARK    1  A    between atoms: _1  and  _3
REMARK    2  A    between atoms: _3  and  _4
REMARK    3  A    between atoms: _3  and  _6
REMARK    4  A    between atoms: _6  and  _7
REMARK    5  A    between atoms: _7  and  _8
REMARK    6  A    between atoms: _11  and  _12
REMARK    7  A    between atoms: _17  and  _19
REMARK    8  A    between atoms: _19  and  _20
REMARK    9  A    between atoms: _19  and  _22
REMARK   10  A    between atoms: _25  and  _27
REMARK   11  A    between atoms: _27  and  _28
REMARK   12  A    between atoms: _30  and  _32
REMARK   13  A    between atoms: _32  and  _33
REMARK   14  A    between atoms: _32  and  _35
REMARK   15  A    between atoms: _35  and  _36
REMARK   16  A    between atoms: _39  and  _41
REMARK   17  A    between atoms: _41  and  _42
REMARK   18  A    between atoms: _45  and  _47
REMARK   19  A    between atoms: _47  and  _48
REMARK   20  A    between atoms: _47  and  _50
REMARK   21  A    between atoms: _50  and  _51
REMARK   22  A    between atoms: _54  and  _56
REMARK   23  A    between atoms: _56  and  _57
REMARK   24  A    between atoms: _59  and  _61
REMARK   25  A    between atoms: _61  and  _62
REMARK   26  A    between atoms: _61  and  _64
REMARK   27  A    between atoms: _64  and  _65
REMARK   28  A    between atoms: _70  and  _72
REMARK   29  A    between atoms: _72  and  _73
REMARK   30  A    between atoms: _72  and  _75
REMARK   31  A    between atoms: _75  and  _76
REMARK   32  A    between atoms: _79  and  _81
REMARK   33  A    between atoms: _81  and  _82
REMARK   34  A    between atoms: _81  and  _84
REMARK   35  A    between atoms: _84  and  _85
REMARK   36  A    between atoms: _90  and  _91
REMARK   37  A    between atoms: _93  and  _95
REMARK   38  A    between atoms: _95  and  _96
REMARK   39  A    between atoms: _95  and  _98
REMARK   40  A    between atoms: _98  and  _99
REMARK   41  A    between atoms: _104  and  _106
REMARK   42  A    between atoms: _106  and  _107
REMARK   43  A    between atoms: _106  and  _109
REMARK   44  A    between atoms: _109  and  _110
REMARK   45  A    between atoms: _113  and  _115
REMARK   46  A    between atoms: _115  and  _116
REMARK   47  A    between atoms: _115  and  _118
REMARK   48  A    between atoms: _118  and  _119
REMARK   49  A    between atoms: _122  and  _124
REMARK   50  A    between atoms: _124  and  _125
REMARK   51  A    between atoms: _124  and  _127
REMARK   52  A    between atoms: _127  and  _128
REMARK   53  A    between atoms: _131  and  _133
REMARK   54  A    between atoms: _133  and  _134
REMARK   55  A    between atoms: _133  and  _136
REMARK   56  A    between atoms: _136  and  _137
REMARK   57  A    between atoms: _139  and  _141
REMARK   58  A    between atoms: _141  and  _142
REMARK   59  A    between atoms: _144  and  _146
REMARK   60  A    between atoms: _146  and  _147
REMARK   61  A    between atoms: _149  and  _151
REMARK   62  A    between atoms: _151  and  _152
REMARK   63  A    between atoms: _151  and  _154
REMARK   64  A    between atoms: _154  and  _155
REMARK   65  A    between atoms: _160  and  _161
REMARK   66  A    between atoms: _163  and  _165
REMARK   67  A    between atoms: _165  and  _166
REMARK   68  A    between atoms: _165  and  _168
REMARK   69  A    between atoms: _168  and  _169
REMARK   70  A    between atoms: _169  and  _170
REMARK   71  A    between atoms: _175  and  _177
REMARK   72  A    between atoms: _177  and  _178
REMARK   73  A    between atoms: _177  and  _180
REMARK   74  A    between atoms: _183  and  _185
REMARK   75  A    between atoms: _185  and  _186
REMARK   76  A    between atoms: _185  and  _188
REMARK   77  A    between atoms: _188  and  _189
REMARK   78  A    between atoms: _189  and  _190
REMARK   79  A    between atoms: _192  and  _194
REMARK   80  A    between atoms: _194  and  _195
REMARK   81  A    between atoms: _194  and  _197
REMARK   82  A    between atoms: _197  and  _198
REMARK   83  A    between atoms: _200  and  _202
REMARK   84  A    between atoms: _202  and  _203
REMARK   85  A    between atoms: _202  and  _205
REMARK   86  A    between atoms: _205  and  _206
REMARK   87  A    between atoms: _209  and  _211
REMARK   88  A    between atoms: _211  and  _212
REMARK   89  A    between atoms: _211  and  _214
REMARK   90  A    between atoms: _214  and  _215
REMARK   91  A    between atoms: _215  and  _216
REMARK   92  A    between atoms: _221  and  _223
REMARK   93  A    between atoms: _223  and  _224
REMARK   94  A    between atoms: _223  and  _226
REMARK   95  A    between atoms: _226  and  _227
REMARK   96  A    between atoms: _227  and  _228
REMARK   97  A    between atoms: _230  and  _232
REMARK   98  A    between atoms: _232  and  _233
REMARK   99  A    between atoms: _236  and  _238
REMARK  100  A    between atoms: _238  and  _239
REMARK  101  A    between atoms: _238  and  _241
REMARK  102  A    between atoms: _241  and  _242
REMARK  103  A    between atoms: _248  and  _250
REMARK  104  A    between atoms: _250  and  _251
REMARK  105  A    between atoms: _250  and  _253
REMARK  106  A    between atoms: _253  and  _254
REMARK  107  A    between atoms: _257  and  _259
REMARK  108  A    between atoms: _259  and  _260
REMARK  109  A    between atoms: _259  and  _262
REMARK  110  A    between atoms: _262  and  _263
REMARK  111  A    between atoms: _263  and  _264
REMARK  112  A    between atoms: _267  and  _269
REMARK  113  A    between atoms: _269  and  _270
REMARK  114  A    between atoms: _269  and  _272
REMARK  115  A    between atoms: _274  and  _276
REMARK  116  A    between atoms: _276  and  _277
REMARK  117  A    between atoms: _276  and  _279
REMARK  118  A    between atoms: _279  and  _280
REMARK  119  A    between atoms: _283  and  _285
REMARK  120  A    between atoms: _285  and  _286
REMARK  121  A    between atoms: _285  and  _288
REMARK  122  A    between atoms: _288  and  _289
REMARK  123  A    between atoms: _291  and  _293
REMARK  124  A    between atoms: _293  and  _294
REMARK  125  A    between atoms: _293  and  _296
REMARK  126  A    between atoms: _296  and  _297
REMARK  127  A    between atoms: _300  and  _302
REMARK  128  A    between atoms: _302  and  _303
REMARK  129  A    between atoms: _302  and  _305
REMARK  130  A    between atoms: _305  and  _306
REMARK  131  A    between atoms: _306  and  _307
REMARK  132  A    between atoms: _312  and  _314
REMARK  133  A    between atoms: _314  and  _315
REMARK  134  A    between atoms: _314  and  _317
REMARK  135  A    between atoms: _317  and  _318
REMARK  136  A    between atoms: _318  and  _319
REMARK  137  A    between atoms: _324  and  _326
REMARK  138  A    between atoms: _326  and  _327
REMARK  139  A    between atoms: _329  and  _331
REMARK  140  A    between atoms: _331  and  _332
REMARK  141  A    between atoms: _331  and  _334
REMARK  142  A    between atoms: _334  and  _335
REMARK  143  A    between atoms: _337  and  _339
REMARK  144  A    between atoms: _339  and  _340
REMARK  145  A    between atoms: _339  and  _342
REMARK  146  A    between atoms: _342  and  _343
REMARK  147  A    between atoms: _343  and  _344
REMARK  148  A    between atoms: _344  and  _345
REMARK  149  A    between atoms: _354  and  _356
REMARK  150  A    between atoms: _356  and  _357
REMARK  151  A    between atoms: _360  and  _362
REMARK  152  A    between atoms: _362  and  _363
REMARK  153  A    between atoms: _362  and  _365
REMARK  154  A    between atoms: _368  and  _370
REMARK  155  A    between atoms: _370  and  _371
REMARK  156  A    between atoms: _373  and  _375
REMARK  157  A    between atoms: _375  and  _376
REMARK  158  A    between atoms: _378  and  _380
REMARK  159  A    between atoms: _380  and  _381
REMARK  160  A    between atoms: _380  and  _383
REMARK  161  A    between atoms: _383  and  _384
REMARK  162  A    between atoms: _387  and  _389
REMARK  163  A    between atoms: _389  and  _390
REMARK  164  A    between atoms: _393  and  _395
REMARK  165  A    between atoms: _395  and  _396
REMARK  166  A    between atoms: _395  and  _398
REMARK  167  A    between atoms: _401  and  _403
REMARK  168  A    between atoms: _403  and  _404
REMARK  169  A    between atoms: _406  and  _408
REMARK  170  A    between atoms: _408  and  _409
REMARK  171  A    between atoms: _408  and  _411
REMARK  172  A    between atoms: _411  and  _412
REMARK  173  A    between atoms: _412  and  _413
REMARK  174  A    between atoms: _416  and  _418
REMARK  175  A    between atoms: _418  and  _419
REMARK  176  A    between atoms: _418  and  _421
REMARK  177  A    between atoms: _421  and  _422
REMARK  178  A    between atoms: _427  and  _428
REMARK  179  A    between atoms: _430  and  _432
REMARK  180  A    between atoms: _432  and  _433
REMARK  181  A    between atoms: _432  and  _435
REMARK  182  A    between atoms: _435  and  _436
REMARK  183  A    between atoms: _439  and  _441
REMARK  184  A    between atoms: _441  and  _442
REMARK  185  A    between atoms: _441  and  _444
REMARK  186  A    between atoms: _444  and  _445
REMARK  187  A    between atoms: _445  and  _446
REMARK  188  A    between atoms: _448  and  _450
REMARK  189  A    between atoms: _450  and  _451
REMARK  190  A    between atoms: _453  and  _455
REMARK  191  A    between atoms: _455  and  _456
REMARK  192  A    between atoms: _455  and  _458
REMARK  193  A    between atoms: _461  and  _463
REMARK  194  A    between atoms: _463  and  _464
REMARK  195  A    between atoms: _466  and  _468
REMARK  196  A    between atoms: _468  and  _469
REMARK  197  A    between atoms: _468  and  _471
REMARK  198  A    between atoms: _471  and  _472
REMARK  199  A    between atoms: _478  and  _480
REMARK  200  A    between atoms: _480  and  _481
REMARK  201  A    between atoms: _480  and  _483
REMARK  202  A    between atoms: _483  and  _484
REMARK  203  A    between atoms: _487  and  _489
REMARK  204  A    between atoms: _489  and  _490
REMARK  205  A    between atoms: _489  and  _492
REMARK  206  A    between atoms: _494  and  _496
REMARK  207  A    between atoms: _496  and  _497
REMARK  208  A    between atoms: _496  and  _499
REMARK  209  A    between atoms: _502  and  _504
REMARK  210  A    between atoms: _504  and  _505
REMARK  211  A    between atoms: _504  and  _507
REMARK  212  A    between atoms: _507  and  _508
REMARK  213  A    between atoms: _511  and  _513
REMARK  214  A    between atoms: _513  and  _514
REMARK  215  A    between atoms: _513  and  _516
REMARK  216  A    between atoms: _516  and  _517
REMARK  217  A    between atoms: _517  and  _518
REMARK  218  A    between atoms: _518  and  _519
REMARK                            x       y       z     vdW  Elec       q    Type
REMARK                         _______ _______ _______ _____ _____    ______ ____
ROOT
ATOM      1  O   HOH     1      -1.125  14.654  81.399  0.00  0.00    +0.000 OA
ENDROOT
TORSDOF 0
REMARK  Name = ../refined-set-2016/4leq/4leq_pocket.pdb
REMARK  218 active torsions:
REMARK  status: ('A' for Active; 'I' for Inactive)
REMARK    1  A    between atoms: _1  and  _3
REMARK    2  A    between atoms: _3  and  _4
REMARK    3  A    between atoms: _3  and  _6
REMARK    4  A    between atoms: _6  and  _7
REMARK    5  A    between atoms: _7  and  _8
REMARK    6  A    between atoms: _11  and  _12
REMARK    7  A    between atoms: _17  and  _19
REMARK    8  A    between atoms: _19  and  _20
REMARK    9  A    between atoms: _19  and  _22
REMARK   10  A    between atoms: _25  and  _27
REMARK   11  A    between atoms: _27  and  _28
REMARK   12  A    between atoms: _30  and  _32
REMARK   13  A    between atoms: _32  and  _33
REMARK   14  A    between atoms: _32  and  _35
REMARK   15  A    between atoms: _35  and  _36
REMARK   16  A    between atoms: _39  and  _41
REMARK   17  A    between atoms: _41  and  _42
REMARK   18  A    between atoms: _45  and  _47
REMARK   19  A    between atoms: _47  and  _48
REMARK   20  A    between atoms: _47  and  _50
REMARK   21  A    between atoms: _50  and  _51
REMARK   22  A    between atoms: _54  and  _56
REMARK   23  A    between atoms: _56  and  _57
REMARK   24  A    between atoms: _59  and  _61
REMARK   25  A    between atoms: _61  and  _62
REMARK   26  A    between atoms: _61  and  _64
REMARK   27  A    between atoms: _64  and  _65
REMARK   28  A    between atoms: _70  and  _72
REMARK   29  A    between atoms: _72  and  _73
REMARK   30  A    between atoms: _72  and  _75
REMARK   31  A    between atoms: _75  and  _76
REMARK   32  A    between atoms: _79  and  _81
REMARK   33  A    between atoms: _81  and  _82
REMARK   34  A    between atoms: _81  and  _84
REMARK   35  A    between atoms: _84  and  _85
REMARK   36  A    between atoms: _90  and  _91
REMARK   37  A    between atoms: _93  and  _95
REMARK   38  A    between atoms: _95  and  _96
REMARK   39  A    between atoms: _95  and  _98
REMARK   40  A    between atoms: _98  and  _99
REMARK   41  A    between atoms: _104  and  _106
REMARK   42  A    between atoms: _106  and  _107
REMARK   43  A    between atoms: _106  and  _109
REMARK   44  A    between atoms: _109  and  _110
REMARK   45  A    between atoms: _113  and  _115
REMARK   46  A    between atoms: _115  and  _116
REMARK   47  A    between atoms: _115  and  _118
REMARK   48  A    between atoms: _118  and  _119
REMARK   49  A    between atoms: _122  and  _124
REMARK   50  A    between atoms: _124  and  _125
REMARK   51  A    between atoms: _124  and  _127
REMARK   52  A    between atoms: _127  and  _128
REMARK   53  A    between atoms: _131  and  _133
REMARK   54  A    between atoms: _133  and  _134
REMARK   55  A    between atoms: _133  and  _136
REMARK   56  A    between atoms: _136  and  _137
REMARK   57  A    between atoms: _139  and  _141
REMARK   58  A    between atoms: _141  and  _142
REMARK   59  A    between atoms: _144  and  _146
REMARK   60  A    between atoms: _146  and  _147
REMARK   61  A    between atoms: _149  and  _151
REMARK   62  A    between atoms: _151  and  _152
REMARK   63  A    between atoms: _151  and  _154
REMARK   64  A    between atoms: _154  and  _155
REMARK   65  A    between atoms: _160  and  _161
REMARK   66  A    between atoms: _163  and  _165
REMARK   67  A    between atoms: _165  and  _166
REMARK   68  A    between atoms: _165  and  _168
REMARK   69  A    between atoms: _168  and  _169
REMARK   70  A    between atoms: _169  and  _170
REMARK   71  A    between atoms: _175  and  _177
REMARK   72  A    between atoms: _177  and  _178
REMARK   73  A    between atoms: _177  and  _180
REMARK   74  A    between atoms: _183  and  _185
REMARK   75  A    between atoms: _185  and  _186
REMARK   76  A    between atoms: _185  and  _188
REMARK   77  A    between atoms: _188  and  _189
REMARK   78  A    between atoms: _189  and  _190
REMARK   79  A    between atoms: _192  and  _194
REMARK   80  A    between atoms: _194  and  _195
REMARK   81  A    between atoms: _194  and  _197
REMARK   82  A    between atoms: _197  and  _198
REMARK   83  A    between atoms: _200  and  _202
REMARK   84  A    between atoms: _202  and  _203
REMARK   85  A    between atoms: _202  and  _205
REMARK   86  A    between atoms: _205  and  _206
REMARK   87  A    between atoms: _209  and  _211
REMARK   88  A    between atoms: _211  and  _212
REMARK   89  A    between atoms: _211  and  _214
REMARK   90  A    between atoms: _214  and  _215
REMARK   91  A    between atoms: _215  and  _216
REMARK   92  A    between atoms: _221  and  _223
REMARK   93  A    between atoms: _223  and  _224
REMARK   94  A    between atoms: _223  and  _226
REMARK   95  A    between atoms: _226  and  _227
REMARK   96  A    between atoms: _227  and  _228
REMARK   97  A    between atoms: _230  and  _232
REMARK   98  A    between atoms: _232  and  _233
REMARK   99  A    between atoms: _236  and  _238
REMARK  100  A    between atoms: _238  and  _239
REMARK  101  A    between atoms: _238  and  _241
REMARK  102  A    between atoms: _241  and  _242
REMARK  103  A    between atoms: _248  and  _250
REMARK  104  A    between atoms: _250  and  _251
REMARK  105  A    between atoms: _250  and  _253
REMARK  106  A    between atoms: _253  and  _254
REMARK  107  A    between atoms: _257  and  _259
REMARK  108  A    between atoms: _259  and  _260
REMARK  109  A    between atoms: _259  and  _262
REMARK  110  A    between atoms: _262  and  _263
REMARK  111  A    between atoms: _263  and  _264
REMARK  112  A    between atoms: _267  and  _269
REMARK  113  A    between atoms: _269  and  _270
REMARK  114  A    between atoms: _269  and  _272
REMARK  115  A    between atoms: _274  and  _276
REMARK  116  A    between atoms: _276  and  _277
REMARK  117  A    between atoms: _276  and  _279
REMARK  118  A    between atoms: _279  and  _280
REMARK  119  A    between atoms: _283  and  _285
REMARK  120  A    between atoms: _285  and  _286
REMARK  121  A    between atoms: _285  and  _288
REMARK  122  A    between atoms: _288  and  _289
REMARK  123  A    between atoms: _291  and  _293
REMARK  124  A    between atoms: _293  and  _294
REMARK  125  A    between atoms: _293  and  _296
REMARK  126  A    between atoms: _296  and  _297
REMARK  127  A    between atoms: _300  and  _302
REMARK  128  A    between atoms: _302  and  _303
REMARK  129  A    between atoms: _302  and  _305
REMARK  130  A    between atoms: _305  and  _306
REMARK  131  A    between atoms: _306  and  _307
REMARK  132  A    between atoms: _312  and  _314
REMARK  133  A    between atoms: _314  and  _315
REMARK  134  A    between atoms: _314  and  _317
REMARK  135  A    between atoms: _317  and  _318
REMARK  136  A    between atoms: _318  and  _319
REMARK  137  A    between atoms: _324  and  _326
REMARK  138  A    between atoms: _326  and  _327
REMARK  139  A    between atoms: _329  and  _331
REMARK  140  A    between atoms: _331  and  _332
REMARK  141  A    between atoms: _331  and  _334
REMARK  142  A    between atoms: _334  and  _335
REMARK  143  A    between atoms: _337  and  _339
REMARK  144  A    between atoms: _339  and  _340
REMARK  145  A    between atoms: _339  and  _342
REMARK  146  A    between atoms: _342  and  _343
REMARK  147  A    between atoms: _343  and  _344
REMARK  148  A    between atoms: _344  and  _345
REMARK  149  A    between atoms: _354  and  _356
REMARK  150  A    between atoms: _356  and  _357
REMARK  151  A    between atoms: _360  and  _362
REMARK  152  A    between atoms: _362  and  _363
REMARK  153  A    between atoms: _362  and  _365
REMARK  154  A    between atoms: _368  and  _370
REMARK  155  A    between atoms: _370  and  _371
REMARK  156  A    between atoms: _373  and  _375
REMARK  157  A    between atoms: _375  and  _376
REMARK  158  A    between atoms: _378  and  _380
REMARK  159  A    between atoms: _380  and  _381
REMARK  160  A    between atoms: _380  and  _383
REMARK  161  A    between atoms: _383  and  _384
REMARK  162  A    between atoms: _387  and  _389
REMARK  163  A    between atoms: _389  and  _390
REMARK  164  A    between atoms: _393  and  _395
REMARK  165  A    between atoms: _395  and  _396
REMARK  166  A    between atoms: _395  and  _398
REMARK  167  A    between atoms: _401  and  _403
REMARK  168  A    between atoms: _403  and  _404
REMARK  169  A    between atoms: _406  and  _408
REMARK  170  A    between atoms: _408  and  _409
REMARK  171  A    between atoms: _408  and  _411
REMARK  172  A    between atoms: _411  and  _412
REMARK  173  A    between atoms: _412  and  _413
REMARK  174  A    between atoms: _416  and  _418
REMARK  175  A    between atoms: _418  and  _419
REMARK  176  A    between atoms: _418  and  _421
REMARK  177  A    between atoms: _421  and  _422
REMARK  178  A    between atoms: _427  and  _428
REMARK  179  A    between atoms: _430  and  _432
REMARK  180  A    between atoms: _432  and  _433
REMARK  181  A    between atoms: _432  and  _435
REMARK  182  A    between atoms: _435  and  _436
REMARK  183  A    between atoms: _439  and  _441
REMARK  184  A    between atoms: _441  and  _442
REMARK  185  A    between atoms: _441  and  _444
REMARK  186  A    between atoms: _444  and  _445
REMARK  187  A    between atoms: _445  and  _446
REMARK  188  A    between atoms: _448  and  _450
REMARK  189  A    between atoms: _450  and  _451
REMARK  190  A    between atoms: _453  and  _455
REMARK  191  A    between atoms: _455  and  _456
REMARK  192  A    between atoms: _455  and  _458
REMARK  193  A    between atoms: _461  and  _463
REMARK  194  A    between atoms: _463  and  _464
REMARK  195  A    between atoms: _466  and  _468
REMARK  196  A    between atoms: _468  and  _469
REMARK  197  A    between atoms: _468  and  _471
REMARK  198  A    between atoms: _471  and  _472
REMARK  199  A    between atoms: _478  and  _480
REMARK  200  A    between atoms: _480  and  _481
REMARK  201  A    between atoms: _480  and  _483
REMARK  202  A    between atoms: _483  and  _484
REMARK  203  A    between atoms: _487  and  _489
REMARK  204  A    between atoms: _489  and  _490
REMARK  205  A    between atoms: _489  and  _492
REMARK  206  A    between atoms: _494  and  _496
REMARK  207  A    between atoms: _496  and  _497
REMARK  208  A    between atoms: _496  and  _499
REMARK  209  A    between atoms: _502  and  _504
REMARK  210  A    between atoms: _504  and  _505
REMARK  211  A    between atoms: _504  and  _507
REMARK  212  A    between atoms: _507  and  _508
REMARK  213  A    between atoms: _511  and  _513
REMARK  214  A    between atoms: _513  and  _514
REMARK  215  A    between atoms: _513  and  _516
REMARK  216  A    between atoms: _516  and  _517
REMARK  217  A    between atoms: _517  and  _518
REMARK  218  A    between atoms: _518  and  _519
REMARK                            x       y       z     vdW  Elec       q    Type
REMARK                         _______ _______ _______ _____ _____    ______ ____
ROOT
ATOM      1  O   HOH     1       0.942  17.983  78.422  0.00  0.00    +0.000 OA
ENDROOT
TORSDOF 0
REMARK  Name = ../refined-set-2016/4leq/4leq_pocket.pdb
REMARK  218 active torsions:
REMARK  status: ('A' for Active; 'I' for Inactive)
REMARK    1  A    between atoms: _1  and  _3
REMARK    2  A    between atoms: _3  and  _4
REMARK    3  A    between atoms: _3  and  _6
REMARK    4  A    between atoms: _6  and  _7
REMARK    5  A    between atoms: _7  and  _8
REMARK    6  A    between atoms: _11  and  _12
REMARK    7  A    between atoms: _17  and  _19
REMARK    8  A    between atoms: _19  and  _20
REMARK    9  A    between atoms: _19  and  _22
REMARK   10  A    between atoms: _25  and  _27
REMARK   11  A    between atoms: _27  and  _28
REMARK   12  A    between atoms: _30  and  _32
REMARK   13  A    between atoms: _32  and  _33
REMARK   14  A    between atoms: _32  and  _35
REMARK   15  A    between atoms: _35  and  _36
REMARK   16  A    between atoms: _39  and  _41
REMARK   17  A    between atoms: _41  and  _42
REMARK   18  A    between atoms: _45  and  _47
REMARK   19  A    between atoms: _47  and  _48
REMARK   20  A    between atoms: _47  and  _50
REMARK   21  A    between atoms: _50  and  _51
REMARK   22  A    between atoms: _54  and  _56
REMARK   23  A    between atoms: _56  and  _57
REMARK   24  A    between atoms: _59  and  _61
REMARK   25  A    between atoms: _61  and  _62
REMARK   26  A    between atoms: _61  and  _64
REMARK   27  A    between atoms: _64  and  _65
REMARK   28  A    between atoms: _70  and  _72
REMARK   29  A    between atoms: _72  and  _73
REMARK   30  A    between atoms: _72  and  _75
REMARK   31  A    between atoms: _75  and  _76
REMARK   32  A    between atoms: _79  and  _81
REMARK   33  A    between atoms: _81  and  _82
REMARK   34  A    between atoms: _81  and  _84
REMARK   35  A    between atoms: _84  and  _85
REMARK   36  A    between atoms: _90  and  _91
REMARK   37  A    between atoms: _93  and  _95
REMARK   38  A    between atoms: _95  and  _96
REMARK   39  A    between atoms: _95  and  _98
REMARK   40  A    between atoms: _98  and  _99
REMARK   41  A    between atoms: _104  and  _106
REMARK   42  A    between atoms: _106  and  _107
REMARK   43  A    between atoms: _106  and  _109
REMARK   44  A    between atoms: _109  and  _110
REMARK   45  A    between atoms: _113  and  _115
REMARK   46  A    between atoms: _115  and  _116
REMARK   47  A    between atoms: _115  and  _118
REMARK   48  A    between atoms: _118  and  _119
REMARK   49  A    between atoms: _122  and  _124
REMARK   50  A    between atoms: _124  and  _125
REMARK   51  A    between atoms: _124  and  _127
REMARK   52  A    between atoms: _127  and  _128
REMARK   53  A    between atoms: _131  and  _133
REMARK   54  A    between atoms: _133  and  _134
REMARK   55  A    between atoms: _133  and  _136
REMARK   56  A    between atoms: _136  and  _137
REMARK   57  A    between atoms: _139  and  _141
REMARK   58  A    between atoms: _141  and  _142
REMARK   59  A    between atoms: _144  and  _146
REMARK   60  A    between atoms: _146  and  _147
REMARK   61  A    between atoms: _149  and  _151
REMARK   62  A    between atoms: _151  and  _152
REMARK   63  A    between atoms: _151  and  _154
REMARK   64  A    between atoms: _154  and  _155
REMARK   65  A    between atoms: _160  and  _161
REMARK   66  A    between atoms: _163  and  _165
REMARK   67  A    between atoms: _165  and  _166
REMARK   68  A    between atoms: _165  and  _168
REMARK   69  A    between atoms: _168  and  _169
REMARK   70  A    between atoms: _169  and  _170
REMARK   71  A    between atoms: _175  and  _177
REMARK   72  A    between atoms: _177  and  _178
REMARK   73  A    between atoms: _177  and  _180
REMARK   74  A    between atoms: _183  and  _185
REMARK   75  A    between atoms: _185  and  _186
REMARK   76  A    between atoms: _185  and  _188
REMARK   77  A    between atoms: _188  and  _189
REMARK   78  A    between atoms: _189  and  _190
REMARK   79  A    between atoms: _192  and  _194
REMARK   80  A    between atoms: _194  and  _195
REMARK   81  A    between atoms: _194  and  _197
REMARK   82  A    between atoms: _197  and  _198
REMARK   83  A    between atoms: _200  and  _202
REMARK   84  A    between atoms: _202  and  _203
REMARK   85  A    between atoms: _202  and  _205
REMARK   86  A    between atoms: _205  and  _206
REMARK   87  A    between atoms: _209  and  _211
REMARK   88  A    between atoms: _211  and  _212
REMARK   89  A    between atoms: _211  and  _214
REMARK   90  A    between atoms: _214  and  _215
REMARK   91  A    between atoms: _215  and  _216
REMARK   92  A    between atoms: _221  and  _223
REMARK   93  A    between atoms: _223  and  _224
REMARK   94  A    between atoms: _223  and  _226
REMARK   95  A    between atoms: _226  and  _227
REMARK   96  A    between atoms: _227  and  _228
REMARK   97  A    between atoms: _230  and  _232
REMARK   98  A    between atoms: _232  and  _233
REMARK   99  A    between atoms: _236  and  _238
REMARK  100  A    between atoms: _238  and  _239
REMARK  101  A    between atoms: _238  and  _241
REMARK  102  A    between atoms: _241  and  _242
REMARK  103  A    between atoms: _248  and  _250
REMARK  104  A    between atoms: _250  and  _251
REMARK  105  A    between atoms: _250  and  _253
REMARK  106  A    between atoms: _253  and  _254
REMARK  107  A    between atoms: _257  and  _259
REMARK  108  A    between atoms: _259  and  _260
REMARK  109  A    between atoms: _259  and  _262
REMARK  110  A    between atoms: _262  and  _263
REMARK  111  A    between atoms: _263  and  _264
REMARK  112  A    between atoms: _267  and  _269
REMARK  113  A    between atoms: _269  and  _270
REMARK  114  A    between atoms: _269  and  _272
REMARK  115  A    between atoms: _274  and  _276
REMARK  116  A    between atoms: _276  and  _277
REMARK  117  A    between atoms: _276  and  _279
REMARK  118  A    between atoms: _279  and  _280
REMARK  119  A    between atoms: _283  and  _285
REMARK  120  A    between atoms: _285  and  _286
REMARK  121  A    between atoms: _285  and  _288
REMARK  122  A    between atoms: _288  and  _289
REMARK  123  A    between atoms: _291  and  _293
REMARK  124  A    between atoms: _293  and  _294
REMARK  125  A    between atoms: _293  and  _296
REMARK  126  A    between atoms: _296  and  _297
REMARK  127  A    between atoms: _300  and  _302
REMARK  128  A    between atoms: _302  and  _303
REMARK  129  A    between atoms: _302  and  _305
REMARK  130  A    between atoms: _305  and  _306
REMARK  131  A    between atoms: _306  and  _307
REMARK  132  A    between atoms: _312  and  _314
REMARK  133  A    between atoms: _314  and  _315
REMARK  134  A    between atoms: _314  and  _317
REMARK  135  A    between atoms: _317  and  _318
REMARK  136  A    between atoms: _318  and  _319
REMARK  137  A    between atoms: _324  and  _326
REMARK  138  A    between atoms: _326  and  _327
REMARK  139  A    between atoms: _329  and  _331
REMARK  140  A    between atoms: _331  and  _332
REMARK  141  A    between atoms: _331  and  _334
REMARK  142  A    between atoms: _334  and  _335
REMARK  143  A    between atoms: _337  and  _339
REMARK  144  A    between atoms: _339  and  _340
REMARK  145  A    between atoms: _339  and  _342
REMARK  146  A    between atoms: _342  and  _343
REMARK  147  A    between atoms: _343  and  _344
REMARK  148  A    between atoms: _344  and  _345
REMARK  149  A    between atoms: _354  and  _356
REMARK  150  A    between atoms: _356  and  _357
REMARK  151  A    between atoms: _360  and  _362
REMARK  152  A    between atoms: _362  and  _363
REMARK  153  A    between atoms: _362  and  _365
REMARK  154  A    between atoms: _368  and  _370
REMARK  155  A    between atoms: _370  and  _371
REMARK  156  A    between atoms: _373  and  _375
REMARK  157  A    between atoms: _375  and  _376
REMARK  158  A    between atoms: _378  and  _380
REMARK  159  A    between atoms: _380  and  _381
REMARK  160  A    between atoms: _380  and  _383
REMARK  161  A    between atoms: _383  and  _384
REMARK  162  A    between atoms: _387  and  _389
REMARK  163  A    between atoms: _389  and  _390
REMARK  164  A    between atoms: _393  and  _395
REMARK  165  A    between atoms: _395  and  _396
REMARK  166  A    between atoms: _395  and  _398
REMARK  167  A    between atoms: _401  and  _403
REMARK  168  A    between atoms: _403  and  _404
REMARK  169  A    between atoms: _406  and  _408
REMARK  170  A    between atoms: _408  and  _409
REMARK  171  A    between atoms: _408  and  _411
REMARK  172  A    between atoms: _411  and  _412
REMARK  173  A    between atoms: _412  and  _413
REMARK  174  A    between atoms: _416  and  _418
REMARK  175  A    between atoms: _418  and  _419
REMARK  176  A    between atoms: _418  and  _421
REMARK  177  A    between atoms: _421  and  _422
REMARK  178  A    between atoms: _427  and  _428
REMARK  179  A    between atoms: _430  and  _432
REMARK  180  A    between atoms: _432  and  _433
REMARK  181  A    between atoms: _432  and  _435
REMARK  182  A    between atoms: _435  and  _436
REMARK  183  A    between atoms: _439  and  _441
REMARK  184  A    between atoms: _441  and  _442
REMARK  185  A    between atoms: _441  and  _444
REMARK  186  A    between atoms: _444  and  _445
REMARK  187  A    between atoms: _445  and  _446
REMARK  188  A    between atoms: _448  and  _450
REMARK  189  A    between atoms: _450  and  _451
REMARK  190  A    between atoms: _453  and  _455
REMARK  191  A    between atoms: _455  and  _456
REMARK  192  A    between atoms: _455  and  _458
REMARK  193  A    between atoms: _461  and  _463
REMARK  194  A    between atoms: _463  and  _464
REMARK  195  A    between atoms: _466  and  _468
REMARK  196  A    between atoms: _468  and  _469
REMARK  197  A    between atoms: _468  and  _471
REMARK  198  A    between atoms: _471  and  _472
REMARK  199  A    between atoms: _478  and  _480
REMARK  200  A    between atoms: _480  and  _481
REMARK  201  A    between atoms: _480  and  _483
REMARK  202  A    between atoms: _483  and  _484
REMARK  203  A    between atoms: _487  and  _489
REMARK  204  A    between atoms: _489  and  _490
REMARK  205  A    between atoms: _489  and  _492
REMARK  206  A    between atoms: _494  and  _496
REMARK  207  A    between atoms: _496  and  _497
REMARK  208  A    between atoms: _496  and  _499
REMARK  209  A    between atoms: _502  and  _504
REMARK  210  A    between atoms: _504  and  _505
REMARK  211  A    between atoms: _504  and  _507
REMARK  212  A    between atoms: _507  and  _508
REMARK  213  A    between atoms: _511  and  _513
REMARK  214  A    between atoms: _513  and  _514
REMARK  215  A    between atoms: _513  and  _516
REMARK  216  A    between atoms: _516  and  _517
REMARK  217  A    between atoms: _517  and  _518
REMARK  218  A    between atoms: _518  and  _519
REMARK                            x       y       z     vdW  Elec       q    Type
REMARK                         _______ _______ _______ _____ _____    ______ ____
ROOT
ATOM      1  O   HOH     1      10.892  21.724  84.943  0.00  0.00    +0.000 OA
ENDROOT
TORSDOF 0
REMARK  Name = ../refined-set-2016/4leq/4leq_pocket.pdb
REMARK  218 active torsions:
REMARK  status: ('A' for Active; 'I' for Inactive)
REMARK    1  A    between atoms: _1  and  _3
REMARK    2  A    between atoms: _3  and  _4
REMARK    3  A    between atoms: _3  and  _6
REMARK    4  A    between atoms: _6  and  _7
REMARK    5  A    between atoms: _7  and  _8
REMARK    6  A    between atoms: _11  and  _12
REMARK    7  A    between atoms: _17  and  _19
REMARK    8  A    between atoms: _19  and  _20
REMARK    9  A    between atoms: _19  and  _22
REMARK   10  A    between atoms: _25  and  _27
REMARK   11  A    between atoms: _27  and  _28
REMARK   12  A    between atoms: _30  and  _32
REMARK   13  A    between atoms: _32  and  _33
REMARK   14  A    between atoms: _32  and  _35
REMARK   15  A    between atoms: _35  and  _36
REMARK   16  A    between atoms: _39  and  _41
REMARK   17  A    between atoms: _41  and  _42
REMARK   18  A    between atoms: _45  and  _47
REMARK   19  A    between atoms: _47  and  _48
REMARK   20  A    between atoms: _47  and  _50
REMARK   21  A    between atoms: _50  and  _51
REMARK   22  A    between atoms: _54  and  _56
REMARK   23  A    between atoms: _56  and  _57
REMARK   24  A    between atoms: _59  and  _61
REMARK   25  A    between atoms: _61  and  _62
REMARK   26  A    between atoms: _61  and  _64
REMARK   27  A    between atoms: _64  and  _65
REMARK   28  A    between atoms: _70  and  _72
REMARK   29  A    between atoms: _72  and  _73
REMARK   30  A    between atoms: _72  and  _75
REMARK   31  A    between atoms: _75  and  _76
REMARK   32  A    between atoms: _79  and  _81
REMARK   33  A    between atoms: _81  and  _82
REMARK   34  A    between atoms: _81  and  _84
REMARK   35  A    between atoms: _84  and  _85
REMARK   36  A    between atoms: _90  and  _91
REMARK   37  A    between atoms: _93  and  _95
REMARK   38  A    between atoms: _95  and  _96
REMARK   39  A    between atoms: _95  and  _98
REMARK   40  A    between atoms: _98  and  _99
REMARK   41  A    between atoms: _104  and  _106
REMARK   42  A    between atoms: _106  and  _107
REMARK   43  A    between atoms: _106  and  _109
REMARK   44  A    between atoms: _109  and  _110
REMARK   45  A    between atoms: _113  and  _115
REMARK   46  A    between atoms: _115  and  _116
REMARK   47  A    between atoms: _115  and  _118
REMARK   48  A    between atoms: _118  and  _119
REMARK   49  A    between atoms: _122  and  _124
REMARK   50  A    between atoms: _124  and  _125
REMARK   51  A    between atoms: _124  and  _127
REMARK   52  A    between atoms: _127  and  _128
REMARK   53  A    between atoms: _131  and  _133
REMARK   54  A    between atoms: _133  and  _134
REMARK   55  A    between atoms: _133  and  _136
REMARK   56  A    between atoms: _136  and  _137
REMARK   57  A    between atoms: _139  and  _141
REMARK   58  A    between atoms: _141  and  _142
REMARK   59  A    between atoms: _144  and  _146
REMARK   60  A    between atoms: _146  and  _147
REMARK   61  A    between atoms: _149  and  _151
REMARK   62  A    between atoms: _151  and  _152
REMARK   63  A    between atoms: _151  and  _154
REMARK   64  A    between atoms: _154  and  _155
REMARK   65  A    between atoms: _160  and  _161
REMARK   66  A    between atoms: _163  and  _165
REMARK   67  A    between atoms: _165  and  _166
REMARK   68  A    between atoms: _165  and  _168
REMARK   69  A    between atoms: _168  and  _169
REMARK   70  A    between atoms: _169  and  _170
REMARK   71  A    between atoms: _175  and  _177
REMARK   72  A    between atoms: _177  and  _178
REMARK   73  A    between atoms: _177  and  _180
REMARK   74  A    between atoms: _183  and  _185
REMARK   75  A    between atoms: _185  and  _186
REMARK   76  A    between atoms: _185  and  _188
REMARK   77  A    between atoms: _188  and  _189
REMARK   78  A    between atoms: _189  and  _190
REMARK   79  A    between atoms: _192  and  _194
REMARK   80  A    between atoms: _194  and  _195
REMARK   81  A    between atoms: _194  and  _197
REMARK   82  A    between atoms: _197  and  _198
REMARK   83  A    between atoms: _200  and  _202
REMARK   84  A    between atoms: _202  and  _203
REMARK   85  A    between atoms: _202  and  _205
REMARK   86  A    between atoms: _205  and  _206
REMARK   87  A    between atoms: _209  and  _211
REMARK   88  A    between atoms: _211  and  _212
REMARK   89  A    between atoms: _211  and  _214
REMARK   90  A    between atoms: _214  and  _215
REMARK   91  A    between atoms: _215  and  _216
REMARK   92  A    between atoms: _221  and  _223
REMARK   93  A    between atoms: _223  and  _224
REMARK   94  A    between atoms: _223  and  _226
REMARK   95  A    between atoms: _226  and  _227
REMARK   96  A    between atoms: _227  and  _228
REMARK   97  A    between atoms: _230  and  _232
REMARK   98  A    between atoms: _232  and  _233
REMARK   99  A    between atoms: _236  and  _238
REMARK  100  A    between atoms: _238  and  _239
REMARK  101  A    between atoms: _238  and  _241
REMARK  102  A    between atoms: _241  and  _242
REMARK  103  A    between atoms: _248  and  _250
REMARK  104  A    between atoms: _250  and  _251
REMARK  105  A    between atoms: _250  and  _253
REMARK  106  A    between atoms: _253  and  _254
REMARK  107  A    between atoms: _257  and  _259
REMARK  108  A    between atoms: _259  and  _260
REMARK  109  A    between atoms: _259  and  _262
REMARK  110  A    between atoms: _262  and  _263
REMARK  111  A    between atoms: _263  and  _264
REMARK  112  A    between atoms: _267  and  _269
REMARK  113  A    between atoms: _269  and  _270
REMARK  114  A    between atoms: _269  and  _272
REMARK  115  A    between atoms: _274  and  _276
REMARK  116  A    between atoms: _276  and  _277
REMARK  117  A    between atoms: _276  and  _279
REMARK  118  A    between atoms: _279  and  _280
REMARK  119  A    between atoms: _283  and  _285
REMARK  120  A    between atoms: _285  and  _286
REMARK  121  A    between atoms: _285  and  _288
REMARK  122  A    between atoms: _288  and  _289
REMARK  123  A    between atoms: _291  and  _293
REMARK  124  A    between atoms: _293  and  _294
REMARK  125  A    between atoms: _293  and  _296
REMARK  126  A    between atoms: _296  and  _297
REMARK  127  A    between atoms: _300  and  _302
REMARK  128  A    between atoms: _302  and  _303
REMARK  129  A    between atoms: _302  and  _305
REMARK  130  A    between atoms: _305  and  _306
REMARK  131  A    between atoms: _306  and  _307
REMARK  132  A    between atoms: _312  and  _314
REMARK  133  A    between atoms: _314  and  _315
REMARK  134  A    between atoms: _314  and  _317
REMARK  135  A    between atoms: _317  and  _318
REMARK  136  A    between atoms: _318  and  _319
REMARK  137  A    between atoms: _324  and  _326
REMARK  138  A    between atoms: _326  and  _327
REMARK  139  A    between atoms: _329  and  _331
REMARK  140  A    between atoms: _331  and  _332
REMARK  141  A    between atoms: _331  and  _334
REMARK  142  A    between atoms: _334  and  _335
REMARK  143  A    between atoms: _337  and  _339
REMARK  144  A    between atoms: _339  and  _340
REMARK  145  A    between atoms: _339  and  _342
REMARK  146  A    between atoms: _342  and  _343
REMARK  147  A    between atoms: _343  and  _344
REMARK  148  A    between atoms: _344  and  _345
REMARK  149  A    between atoms: _354  and  _356
REMARK  150  A    between atoms: _356  and  _357
REMARK  151  A    between atoms: _360  and  _362
REMARK  152  A    between atoms: _362  and  _363
REMARK  153  A    between atoms: _362  and  _365
REMARK  154  A    between atoms: _368  and  _370
REMARK  155  A    between atoms: _370  and  _371
REMARK  156  A    between atoms: _373  and  _375
REMARK  157  A    between atoms: _375  and  _376
REMARK  158  A    between atoms: _378  and  _380
REMARK  159  A    between atoms: _380  and  _381
REMARK  160  A    between atoms: _380  and  _383
REMARK  161  A    between atoms: _383  and  _384
REMARK  162  A    between atoms: _387  and  _389
REMARK  163  A    between atoms: _389  and  _390
REMARK  164  A    between atoms: _393  and  _395
REMARK  165  A    between atoms: _395  and  _396
REMARK  166  A    between atoms: _395  and  _398
REMARK  167  A    between atoms: _401  and  _403
REMARK  168  A    between atoms: _403  and  _404
REMARK  169  A    between atoms: _406  and  _408
REMARK  170  A    between atoms: _408  and  _409
REMARK  171  A    between atoms: _408  and  _411
REMARK  172  A    between atoms: _411  and  _412
REMARK  173  A    between atoms: _412  and  _413
REMARK  174  A    between atoms: _416  and  _418
REMARK  175  A    between atoms: _418  and  _419
REMARK  176  A    between atoms: _418  and  _421
REMARK  177  A    between atoms: _421  and  _422
REMARK  178  A    between atoms: _427  and  _428
REMARK  179  A    between atoms: _430  and  _432
REMARK  180  A    between atoms: _432  and  _433
REMARK  181  A    between atoms: _432  and  _435
REMARK  182  A    between atoms: _435  and  _436
REMARK  183  A    between atoms: _439  and  _441
REMARK  184  A    between atoms: _441  and  _442
REMARK  185  A    between atoms: _441  and  _444
REMARK  186  A    between atoms: _444  and  _445
REMARK  187  A    between atoms: _445  and  _446
REMARK  188  A    between atoms: _448  and  _450
REMARK  189  A    between atoms: _450  and  _451
REMARK  190  A    between atoms: _453  and  _455
REMARK  191  A    between atoms: _455  and  _456
REMARK  192  A    between atoms: _455  and  _458
REMARK  193  A    between atoms: _461  and  _463
REMARK  194  A    between atoms: _463  and  _464
REMARK  195  A    between atoms: _466  and  _468
REMARK  196  A    between atoms: _468  and  _469
REMARK  197  A    between atoms: _468  and  _471
REMARK  198  A    between atoms: _471  and  _472
REMARK  199  A    between atoms: _478  and  _480
REMARK  200  A    between atoms: _480  and  _481
REMARK  201  A    between atoms: _480  and  _483
REMARK  202  A    between atoms: _483  and  _484
REMARK  203  A    between atoms: _487  and  _489
REMARK  204  A    between atoms: _489  and  _490
REMARK  205  A    between atoms: _489  and  _492
REMARK  206  A    between atoms: _494  and  _496
REMARK  207  A    between atoms: _496  and  _497
REMARK  208  A    between atoms: _496  and  _499
REMARK  209  A    between atoms: _502  and  _504
REMARK  210  A    between atoms: _504  and  _505
REMARK  211  A    between atoms: _504  and  _507
REMARK  212  A    between atoms: _507  and  _508
REMARK  213  A    between atoms: _511  and  _513
REMARK  214  A    between atoms: _513  and  _514
REMARK  215  A    between atoms: _513  and  _516
REMARK  216  A    between atoms: _516  and  _517
REMARK  217  A    between atoms: _517  and  _518
REMARK  218  A    between atoms: _518  and  _519
REMARK                            x       y       z     vdW  Elec       q    Type
REMARK                         _______ _______ _______ _____ _____    ______ ____
ROOT
ATOM      1  O   HOH     1      16.744  20.704  82.905  0.00  0.00    +0.000 OA
ENDROOT
TORSDOF 0
REMARK  Name = ../refined-set-2016/4leq/4leq_pocket.pdb
REMARK  218 active torsions:
REMARK  status: ('A' for Active; 'I' for Inactive)
REMARK    1  A    between atoms: _1  and  _3
REMARK    2  A    between atoms: _3  and  _4
REMARK    3  A    between atoms: _3  and  _6
REMARK    4  A    between atoms: _6  and  _7
REMARK    5  A    between atoms: _7  and  _8
REMARK    6  A    between atoms: _11  and  _12
REMARK    7  A    between atoms: _17  and  _19
REMARK    8  A    between atoms: _19  and  _20
REMARK    9  A    between atoms: _19  and  _22
REMARK   10  A    between atoms: _25  and  _27
REMARK   11  A    between atoms: _27  and  _28
REMARK   12  A    between atoms: _30  and  _32
REMARK   13  A    between atoms: _32  and  _33
REMARK   14  A    between atoms: _32  and  _35
REMARK   15  A    between atoms: _35  and  _36
REMARK   16  A    between atoms: _39  and  _41
REMARK   17  A    between atoms: _41  and  _42
REMARK   18  A    between atoms: _45  and  _47
REMARK   19  A    between atoms: _47  and  _48
REMARK   20  A    between atoms: _47  and  _50
REMARK   21  A    between atoms: _50  and  _51
REMARK   22  A    between atoms: _54  and  _56
REMARK   23  A    between atoms: _56  and  _57
REMARK   24  A    between atoms: _59  and  _61
REMARK   25  A    between atoms: _61  and  _62
REMARK   26  A    between atoms: _61  and  _64
REMARK   27  A    between atoms: _64  and  _65
REMARK   28  A    between atoms: _70  and  _72
REMARK   29  A    between atoms: _72  and  _73
REMARK   30  A    between atoms: _72  and  _75
REMARK   31  A    between atoms: _75  and  _76
REMARK   32  A    between atoms: _79  and  _81
REMARK   33  A    between atoms: _81  and  _82
REMARK   34  A    between atoms: _81  and  _84
REMARK   35  A    between atoms: _84  and  _85
REMARK   36  A    between atoms: _90  and  _91
REMARK   37  A    between atoms: _93  and  _95
REMARK   38  A    between atoms: _95  and  _96
REMARK   39  A    between atoms: _95  and  _98
REMARK   40  A    between atoms: _98  and  _99
REMARK   41  A    between atoms: _104  and  _106
REMARK   42  A    between atoms: _106  and  _107
REMARK   43  A    between atoms: _106  and  _109
REMARK   44  A    between atoms: _109  and  _110
REMARK   45  A    between atoms: _113  and  _115
REMARK   46  A    between atoms: _115  and  _116
REMARK   47  A    between atoms: _115  and  _118
REMARK   48  A    between atoms: _118  and  _119
REMARK   49  A    between atoms: _122  and  _124
REMARK   50  A    between atoms: _124  and  _125
REMARK   51  A    between atoms: _124  and  _127
REMARK   52  A    between atoms: _127  and  _128
REMARK   53  A    between atoms: _131  and  _133
REMARK   54  A    between atoms: _133  and  _134
REMARK   55  A    between atoms: _133  and  _136
REMARK   56  A    between atoms: _136  and  _137
REMARK   57  A    between atoms: _139  and  _141
REMARK   58  A    between atoms: _141  and  _142
REMARK   59  A    between atoms: _144  and  _146
REMARK   60  A    between atoms: _146  and  _147
REMARK   61  A    between atoms: _149  and  _151
REMARK   62  A    between atoms: _151  and  _152
REMARK   63  A    between atoms: _151  and  _154
REMARK   64  A    between atoms: _154  and  _155
REMARK   65  A    between atoms: _160  and  _161
REMARK   66  A    between atoms: _163  and  _165
REMARK   67  A    between atoms: _165  and  _166
REMARK   68  A    between atoms: _165  and  _168
REMARK   69  A    between atoms: _168  and  _169
REMARK   70  A    between atoms: _169  and  _170
REMARK   71  A    between atoms: _175  and  _177
REMARK   72  A    between atoms: _177  and  _178
REMARK   73  A    between atoms: _177  and  _180
REMARK   74  A    between atoms: _183  and  _185
REMARK   75  A    between atoms: _185  and  _186
REMARK   76  A    between atoms: _185  and  _188
REMARK   77  A    between atoms: _188  and  _189
REMARK   78  A    between atoms: _189  and  _190
REMARK   79  A    between atoms: _192  and  _194
REMARK   80  A    between atoms: _194  and  _195
REMARK   81  A    between atoms: _194  and  _197
REMARK   82  A    between atoms: _197  and  _198
REMARK   83  A    between atoms: _200  and  _202
REMARK   84  A    between atoms: _202  and  _203
REMARK   85  A    between atoms: _202  and  _205
REMARK   86  A    between atoms: _205  and  _206
REMARK   87  A    between atoms: _209  and  _211
REMARK   88  A    between atoms: _211  and  _212
REMARK   89  A    between atoms: _211  and  _214
REMARK   90  A    between atoms: _214  and  _215
REMARK   91  A    between atoms: _215  and  _216
REMARK   92  A    between atoms: _221  and  _223
REMARK   93  A    between atoms: _223  and  _224
REMARK   94  A    between atoms: _223  and  _226
REMARK   95  A    between atoms: _226  and  _227
REMARK   96  A    between atoms: _227  and  _228
REMARK   97  A    between atoms: _230  and  _232
REMARK   98  A    between atoms: _232  and  _233
REMARK   99  A    between atoms: _236  and  _238
REMARK  100  A    between atoms: _238  and  _239
REMARK  101  A    between atoms: _238  and  _241
REMARK  102  A    between atoms: _241  and  _242
REMARK  103  A    between atoms: _248  and  _250
REMARK  104  A    between atoms: _250  and  _251
REMARK  105  A    between atoms: _250  and  _253
REMARK  106  A    between atoms: _253  and  _254
REMARK  107  A    between atoms: _257  and  _259
REMARK  108  A    between atoms: _259  and  _260
REMARK  109  A    between atoms: _259  and  _262
REMARK  110  A    between atoms: _262  and  _263
REMARK  111  A    between atoms: _263  and  _264
REMARK  112  A    between atoms: _267  and  _269
REMARK  113  A    between atoms: _269  and  _270
REMARK  114  A    between atoms: _269  and  _272
REMARK  115  A    between atoms: _274  and  _276
REMARK  116  A    between atoms: _276  and  _277
REMARK  117  A    between atoms: _276  and  _279
REMARK  118  A    between atoms: _279  and  _280
REMARK  119  A    between atoms: _283  and  _285
REMARK  120  A    between atoms: _285  and  _286
REMARK  121  A    between atoms: _285  and  _288
REMARK  122  A    between atoms: _288  and  _289
REMARK  123  A    between atoms: _291  and  _293
REMARK  124  A    between atoms: _293  and  _294
REMARK  125  A    between atoms: _293  and  _296
REMARK  126  A    between atoms: _296  and  _297
REMARK  127  A    between atoms: _300  and  _302
REMARK  128  A    between atoms: _302  and  _303
REMARK  129  A    between atoms: _302  and  _305
REMARK  130  A    between atoms: _305  and  _306
REMARK  131  A    between atoms: _306  and  _307
REMARK  132  A    between atoms: _312  and  _314
REMARK  133  A    between atoms: _314  and  _315
REMARK  134  A    between atoms: _314  and  _317
REMARK  135  A    between atoms: _317  and  _318
REMARK  136  A    between atoms: _318  and  _319
REMARK  137  A    between atoms: _324  and  _326
REMARK  138  A    between atoms: _326  and  _327
REMARK  139  A    between atoms: _329  and  _331
REMARK  140  A    between atoms: _331  and  _332
REMARK  141  A    between atoms: _331  and  _334
REMARK  142  A    between atoms: _334  and  _335
REMARK  143  A    between atoms: _337  and  _339
REMARK  144  A    between atoms: _339  and  _340
REMARK  145  A    between atoms: _339  and  _342
REMARK  146  A    between atoms: _342  and  _343
REMARK  147  A    between atoms: _343  and  _344
REMARK  148  A    between atoms: _344  and  _345
REMARK  149  A    between atoms: _354  and  _356
REMARK  150  A    between atoms: _356  and  _357
REMARK  151  A    between atoms: _360  and  _362
REMARK  152  A    between atoms: _362  and  _363
REMARK  153  A    between atoms: _362  and  _365
REMARK  154  A    between atoms: _368  and  _370
REMARK  155  A    between atoms: _370  and  _371
REMARK  156  A    between atoms: _373  and  _375
REMARK  157  A    between atoms: _375  and  _376
REMARK  158  A    between atoms: _378  and  _380
REMARK  159  A    between atoms: _380  and  _381
REMARK  160  A    between atoms: _380  and  _383
REMARK  161  A    between atoms: _383  and  _384
REMARK  162  A    between atoms: _387  and  _389
REMARK  163  A    between atoms: _389  and  _390
REMARK  164  A    between atoms: _393  and  _395
REMARK  165  A    between atoms: _395  and  _396
REMARK  166  A    between atoms: _395  and  _398
REMARK  167  A    between atoms: _401  and  _403
REMARK  168  A    between atoms: _403  and  _404
REMARK  169  A    between atoms: _406  and  _408
REMARK  170  A    between atoms: _408  and  _409
REMARK  171  A    between atoms: _408  and  _411
REMARK  172  A    between atoms: _411  and  _412
REMARK  173  A    between atoms: _412  and  _413
REMARK  174  A    between atoms: _416  and  _418
REMARK  175  A    between atoms: _418  and  _419
REMARK  176  A    between atoms: _418  and  _421
REMARK  177  A    between atoms: _421  and  _422
REMARK  178  A    between atoms: _427  and  _428
REMARK  179  A    between atoms: _430  and  _432
REMARK  180  A    between atoms: _432  and  _433
REMARK  181  A    between atoms: _432  and  _435
REMARK  182  A    between atoms: _435  and  _436
REMARK  183  A    between atoms: _439  and  _441
REMARK  184  A    between atoms: _441  and  _442
REMARK  185  A    between atoms: _441  and  _444
REMARK  186  A    between atoms: _444  and  _445
REMARK  187  A    between atoms: _445  and  _446
REMARK  188  A    between atoms: _448  and  _450
REMARK  189  A    between atoms: _450  and  _451
REMARK  190  A    between atoms: _453  and  _455
REMARK  191  A    between atoms: _455  and  _456
REMARK  192  A    between atoms: _455  and  _458
REMARK  193  A    between atoms: _461  and  _463
REMARK  194  A    between atoms: _463  and  _464
REMARK  195  A    between atoms: _466  and  _468
REMARK  196  A    between atoms: _468  and  _469
REMARK  197  A    between atoms: _468  and  _471
REMARK  198  A    between atoms: _471  and  _472
REMARK  199  A    between atoms: _478  and  _480
REMARK  200  A    between atoms: _480  and  _481
REMARK  201  A    between atoms: _480  and  _483
REMARK  202  A    between atoms: _483  and  _484
REMARK  203  A    between atoms: _487  and  _489
REMARK  204  A    between atoms: _489  and  _490
REMARK  205  A    between atoms: _489  and  _492
REMARK  206  A    between atoms: _494  and  _496
REMARK  207  A    between atoms: _496  and  _497
REMARK  208  A    between atoms: _496  and  _499
REMARK  209  A    between atoms: _502  and  _504
REMARK  210  A    between atoms: _504  and  _505
REMARK  211  A    between atoms: _504  and  _507
REMARK  212  A    between atoms: _507  and  _508
REMARK  213  A    between atoms: _511  and  _513
REMARK  214  A    between atoms: _513  and  _514
REMARK  215  A    between atoms: _513  and  _516
REMARK  216  A    between atoms: _516  and  _517
REMARK  217  A    between atoms: _517  and  _518
REMARK  218  A    between atoms: _518  and  _519
REMARK                            x       y       z     vdW  Elec       q    Type
REMARK                         _______ _______ _______ _____ _____    ______ ____
ROOT
ATOM      1  O   HOH     1      -3.746  12.959  87.457  0.00  0.00    +0.000 OA
ENDROOT
TORSDOF 0
REMARK  Name = ../refined-set-2016/4leq/4leq_pocket.pdb
REMARK  218 active torsions:
REMARK  status: ('A' for Active; 'I' for Inactive)
REMARK    1  A    between atoms: _1  and  _3
REMARK    2  A    between atoms: _3  and  _4
REMARK    3  A    between atoms: _3  and  _6
REMARK    4  A    between atoms: _6  and  _7
REMARK    5  A    between atoms: _7  and  _8
REMARK    6  A    between atoms: _11  and  _12
REMARK    7  A    between atoms: _17  and  _19
REMARK    8  A    between atoms: _19  and  _20
REMARK    9  A    between atoms: _19  and  _22
REMARK   10  A    between atoms: _25  and  _27
REMARK   11  A    between atoms: _27  and  _28
REMARK   12  A    between atoms: _30  and  _32
REMARK   13  A    between atoms: _32  and  _33
REMARK   14  A    between atoms: _32  and  _35
REMARK   15  A    between atoms: _35  and  _36
REMARK   16  A    between atoms: _39  and  _41
REMARK   17  A    between atoms: _41  and  _42
REMARK   18  A    between atoms: _45  and  _47
REMARK   19  A    between atoms: _47  and  _48
REMARK   20  A    between atoms: _47  and  _50
REMARK   21  A    between atoms: _50  and  _51
REMARK   22  A    between atoms: _54  and  _56
REMARK   23  A    between atoms: _56  and  _57
REMARK   24  A    between atoms: _59  and  _61
REMARK   25  A    between atoms: _61  and  _62
REMARK   26  A    between atoms: _61  and  _64
REMARK   27  A    between atoms: _64  and  _65
REMARK   28  A    between atoms: _70  and  _72
REMARK   29  A    between atoms: _72  and  _73
REMARK   30  A    between atoms: _72  and  _75
REMARK   31  A    between atoms: _75  and  _76
REMARK   32  A    between atoms: _79  and  _81
REMARK   33  A    between atoms: _81  and  _82
REMARK   34  A    between atoms: _81  and  _84
REMARK   35  A    between atoms: _84  and  _85
REMARK   36  A    between atoms: _90  and  _91
REMARK   37  A    between atoms: _93  and  _95
REMARK   38  A    between atoms: _95  and  _96
REMARK   39  A    between atoms: _95  and  _98
REMARK   40  A    between atoms: _98  and  _99
REMARK   41  A    between atoms: _104  and  _106
REMARK   42  A    between atoms: _106  and  _107
REMARK   43  A    between atoms: _106  and  _109
REMARK   44  A    between atoms: _109  and  _110
REMARK   45  A    between atoms: _113  and  _115
REMARK   46  A    between atoms: _115  and  _116
REMARK   47  A    between atoms: _115  and  _118
REMARK   48  A    between atoms: _118  and  _119
REMARK   49  A    between atoms: _122  and  _124
REMARK   50  A    between atoms: _124  and  _125
REMARK   51  A    between atoms: _124  and  _127
REMARK   52  A    between atoms: _127  and  _128
REMARK   53  A    between atoms: _131  and  _133
REMARK   54  A    between atoms: _133  and  _134
REMARK   55  A    between atoms: _133  and  _136
REMARK   56  A    between atoms: _136  and  _137
REMARK   57  A    between atoms: _139  and  _141
REMARK   58  A    between atoms: _141  and  _142
REMARK   59  A    between atoms: _144  and  _146
REMARK   60  A    between atoms: _146  and  _147
REMARK   61  A    between atoms: _149  and  _151
REMARK   62  A    between atoms: _151  and  _152
REMARK   63  A    between atoms: _151  and  _154
REMARK   64  A    between atoms: _154  and  _155
REMARK   65  A    between atoms: _160  and  _161
REMARK   66  A    between atoms: _163  and  _165
REMARK   67  A    between atoms: _165  and  _166
REMARK   68  A    between atoms: _165  and  _168
REMARK   69  A    between atoms: _168  and  _169
REMARK   70  A    between atoms: _169  and  _170
REMARK   71  A    between atoms: _175  and  _177
REMARK   72  A    between atoms: _177  and  _178
REMARK   73  A    between atoms: _177  and  _180
REMARK   74  A    between atoms: _183  and  _185
REMARK   75  A    between atoms: _185  and  _186
REMARK   76  A    between atoms: _185  and  _188
REMARK   77  A    between atoms: _188  and  _189
REMARK   78  A    between atoms: _189  and  _190
REMARK   79  A    between atoms: _192  and  _194
REMARK   80  A    between atoms: _194  and  _195
REMARK   81  A    between atoms: _194  and  _197
REMARK   82  A    between atoms: _197  and  _198
REMARK   83  A    between atoms: _200  and  _202
REMARK   84  A    between atoms: _202  and  _203
REMARK   85  A    between atoms: _202  and  _205
REMARK   86  A    between atoms: _205  and  _206
REMARK   87  A    between atoms: _209  and  _211
REMARK   88  A    between atoms: _211  and  _212
REMARK   89  A    between atoms: _211  and  _214
REMARK   90  A    between atoms: _214  and  _215
REMARK   91  A    between atoms: _215  and  _216
REMARK   92  A    between atoms: _221  and  _223
REMARK   93  A    between atoms: _223  and  _224
REMARK   94  A    between atoms: _223  and  _226
REMARK   95  A    between atoms: _226  and  _227
REMARK   96  A    between atoms: _227  and  _228
REMARK   97  A    between atoms: _230  and  _232
REMARK   98  A    between atoms: _232  and  _233
REMARK   99  A    between atoms: _236  and  _238
REMARK  100  A    between atoms: _238  and  _239
REMARK  101  A    between atoms: _238  and  _241
REMARK  102  A    between atoms: _241  and  _242
REMARK  103  A    between atoms: _248  and  _250
REMARK  104  A    between atoms: _250  and  _251
REMARK  105  A    between atoms: _250  and  _253
REMARK  106  A    between atoms: _253  and  _254
REMARK  107  A    between atoms: _257  and  _259
REMARK  108  A    between atoms: _259  and  _260
REMARK  109  A    between atoms: _259  and  _262
REMARK  110  A    between atoms: _262  and  _263
REMARK  111  A    between atoms: _263  and  _264
REMARK  112  A    between atoms: _267  and  _269
REMARK  113  A    between atoms: _269  and  _270
REMARK  114  A    between atoms: _269  and  _272
REMARK  115  A    between atoms: _274  and  _276
REMARK  116  A    between atoms: _276  and  _277
REMARK  117  A    between atoms: _276  and  _279
REMARK  118  A    between atoms: _279  and  _280
REMARK  119  A    between atoms: _283  and  _285
REMARK  120  A    between atoms: _285  and  _286
REMARK  121  A    between atoms: _285  and  _288
REMARK  122  A    between atoms: _288  and  _289
REMARK  123  A    between atoms: _291  and  _293
REMARK  124  A    between atoms: _293  and  _294
REMARK  125  A    between atoms: _293  and  _296
REMARK  126  A    between atoms: _296  and  _297
REMARK  127  A    between atoms: _300  and  _302
REMARK  128  A    between atoms: _302  and  _303
REMARK  129  A    between atoms: _302  and  _305
REMARK  130  A    between atoms: _305  and  _306
REMARK  131  A    between atoms: _306  and  _307
REMARK  132  A    between atoms: _312  and  _314
REMARK  133  A    between atoms: _314  and  _315
REMARK  134  A    between atoms: _314  and  _317
REMARK  135  A    between atoms: _317  and  _318
REMARK  136  A    between atoms: _318  and  _319
REMARK  137  A    between atoms: _324  and  _326
REMARK  138  A    between atoms: _326  and  _327
REMARK  139  A    between atoms: _329  and  _331
REMARK  140  A    between atoms: _331  and  _332
REMARK  141  A    between atoms: _331  and  _334
REMARK  142  A    between atoms: _334  and  _335
REMARK  143  A    between atoms: _337  and  _339
REMARK  144  A    between atoms: _339  and  _340
REMARK  145  A    between atoms: _339  and  _342
REMARK  146  A    between atoms: _342  and  _343
REMARK  147  A    between atoms: _343  and  _344
REMARK  148  A    between atoms: _344  and  _345
REMARK  149  A    between atoms: _354  and  _356
REMARK  150  A    between atoms: _356  and  _357
REMARK  151  A    between atoms: _360  and  _362
REMARK  152  A    between atoms: _362  and  _363
REMARK  153  A    between atoms: _362  and  _365
REMARK  154  A    between atoms: _368  and  _370
REMARK  155  A    between atoms: _370  and  _371
REMARK  156  A    between atoms: _373  and  _375
REMARK  157  A    between atoms: _375  and  _376
REMARK  158  A    between atoms: _378  and  _380
REMARK  159  A    between atoms: _380  and  _381
REMARK  160  A    between atoms: _380  and  _383
REMARK  161  A    between atoms: _383  and  _384
REMARK  162  A    between atoms: _387  and  _389
REMARK  163  A    between atoms: _389  and  _390
REMARK  164  A    between atoms: _393  and  _395
REMARK  165  A    between atoms: _395  and  _396
REMARK  166  A    between atoms: _395  and  _398
REMARK  167  A    between atoms: _401  and  _403
REMARK  168  A    between atoms: _403  and  _404
REMARK  169  A    between atoms: _406  and  _408
REMARK  170  A    between atoms: _408  and  _409
REMARK  171  A    between atoms: _408  and  _411
REMARK  172  A    between atoms: _411  and  _412
REMARK  173  A    between atoms: _412  and  _413
REMARK  174  A    between atoms: _416  and  _418
REMARK  175  A    between atoms: _418  and  _419
REMARK  176  A    between atoms: _418  and  _421
REMARK  177  A    between atoms: _421  and  _422
REMARK  178  A    between atoms: _427  and  _428
REMARK  179  A    between atoms: _430  and  _432
REMARK  180  A    between atoms: _432  and  _433
REMARK  181  A    between atoms: _432  and  _435
REMARK  182  A    between atoms: _435  and  _436
REMARK  183  A    between atoms: _439  and  _441
REMARK  184  A    between atoms: _441  and  _442
REMARK  185  A    between atoms: _441  and  _444
REMARK  186  A    between atoms: _444  and  _445
REMARK  187  A    between atoms: _445  and  _446
REMARK  188  A    between atoms: _448  and  _450
REMARK  189  A    between atoms: _450  and  _451
REMARK  190  A    between atoms: _453  and  _455
REMARK  191  A    between atoms: _455  and  _456
REMARK  192  A    between atoms: _455  and  _458
REMARK  193  A    between atoms: _461  and  _463
REMARK  194  A    between atoms: _463  and  _464
REMARK  195  A    between atoms: _466  and  _468
REMARK  196  A    between atoms: _468  and  _469
REMARK  197  A    between atoms: _468  and  _471
REMARK  198  A    between atoms: _471  and  _472
REMARK  199  A    between atoms: _478  and  _480
REMARK  200  A    between atoms: _480  and  _481
REMARK  201  A    between atoms: _480  and  _483
REMARK  202  A    between atoms: _483  and  _484
REMARK  203  A    between atoms: _487  and  _489
REMARK  204  A    between atoms: _489  and  _490
REMARK  205  A    between atoms: _489  and  _492
REMARK  206  A    between atoms: _494  and  _496
REMARK  207  A    between atoms: _496  and  _497
REMARK  208  A    between atoms: _496  and  _499
REMARK  209  A    between atoms: _502  and  _504
REMARK  210  A    between atoms: _504  and  _505
REMARK  211  A    between atoms: _504  and  _507
REMARK  212  A    between atoms: _507  and  _508
REMARK  213  A    between atoms: _511  and  _513
REMARK  214  A    between atoms: _513  and  _514
REMARK  215  A    between atoms: _513  and  _516
REMARK  216  A    between atoms: _516  and  _517
REMARK  217  A    between atoms: _517  and  _518
REMARK  218  A    between atoms: _518  and  _519
REMARK                            x       y       z     vdW  Elec       q    Type
REMARK                         _______ _______ _______ _____ _____    ______ ____
ROOT
ATOM      1  O   HOH     1      17.963  18.340  83.415  0.00  0.00    +0.000 OA
ENDROOT
TORSDOF 0
REMARK  Name = ../refined-set-2016/4leq/4leq_pocket.pdb
REMARK  218 active torsions:
REMARK  status: ('A' for Active; 'I' for Inactive)
REMARK    1  A    between atoms: _1  and  _3
REMARK    2  A    between atoms: _3  and  _4
REMARK    3  A    between atoms: _3  and  _6
REMARK    4  A    between atoms: _6  and  _7
REMARK    5  A    between atoms: _7  and  _8
REMARK    6  A    between atoms: _11  and  _12
REMARK    7  A    between atoms: _17  and  _19
REMARK    8  A    between atoms: _19  and  _20
REMARK    9  A    between atoms: _19  and  _22
REMARK   10  A    between atoms: _25  and  _27
REMARK   11  A    between atoms: _27  and  _28
REMARK   12  A    between atoms: _30  and  _32
REMARK   13  A    between atoms: _32  and  _33
REMARK   14  A    between atoms: _32  and  _35
REMARK   15  A    between atoms: _35  and  _36
REMARK   16  A    between atoms: _39  and  _41
REMARK   17  A    between atoms: _41  and  _42
REMARK   18  A    between atoms: _45  and  _47
REMARK   19  A    between atoms: _47  and  _48
REMARK   20  A    between atoms: _47  and  _50
REMARK   21  A    between atoms: _50  and  _51
REMARK   22  A    between atoms: _54  and  _56
REMARK   23  A    between atoms: _56  and  _57
REMARK   24  A    between atoms: _59  and  _61
REMARK   25  A    between atoms: _61  and  _62
REMARK   26  A    between atoms: _61  and  _64
REMARK   27  A    between atoms: _64  and  _65
REMARK   28  A    between atoms: _70  and  _72
REMARK   29  A    between atoms: _72  and  _73
REMARK   30  A    between atoms: _72  and  _75
REMARK   31  A    between atoms: _75  and  _76
REMARK   32  A    between atoms: _79  and  _81
REMARK   33  A    between atoms: _81  and  _82
REMARK   34  A    between atoms: _81  and  _84
REMARK   35  A    between atoms: _84  and  _85
REMARK   36  A    between atoms: _90  and  _91
REMARK   37  A    between atoms: _93  and  _95
REMARK   38  A    between atoms: _95  and  _96
REMARK   39  A    between atoms: _95  and  _98
REMARK   40  A    between atoms: _98  and  _99
REMARK   41  A    between atoms: _104  and  _106
REMARK   42  A    between atoms: _106  and  _107
REMARK   43  A    between atoms: _106  and  _109
REMARK   44  A    between atoms: _109  and  _110
REMARK   45  A    between atoms: _113  and  _115
REMARK   46  A    between atoms: _115  and  _116
REMARK   47  A    between atoms: _115  and  _118
REMARK   48  A    between atoms: _118  and  _119
REMARK   49  A    between atoms: _122  and  _124
REMARK   50  A    between atoms: _124  and  _125
REMARK   51  A    between atoms: _124  and  _127
REMARK   52  A    between atoms: _127  and  _128
REMARK   53  A    between atoms: _131  and  _133
REMARK   54  A    between atoms: _133  and  _134
REMARK   55  A    between atoms: _133  and  _136
REMARK   56  A    between atoms: _136  and  _137
REMARK   57  A    between atoms: _139  and  _141
REMARK   58  A    between atoms: _141  and  _142
REMARK   59  A    between atoms: _144  and  _146
REMARK   60  A    between atoms: _146  and  _147
REMARK   61  A    between atoms: _149  and  _151
REMARK   62  A    between atoms: _151  and  _152
REMARK   63  A    between atoms: _151  and  _154
REMARK   64  A    between atoms: _154  and  _155
REMARK   65  A    between atoms: _160  and  _161
REMARK   66  A    between atoms: _163  and  _165
REMARK   67  A    between atoms: _165  and  _166
REMARK   68  A    between atoms: _165  and  _168
REMARK   69  A    between atoms: _168  and  _169
REMARK   70  A    between atoms: _169  and  _170
REMARK   71  A    between atoms: _175  and  _177
REMARK   72  A    between atoms: _177  and  _178
REMARK   73  A    between atoms: _177  and  _180
REMARK   74  A    between atoms: _183  and  _185
REMARK   75  A    between atoms: _185  and  _186
REMARK   76  A    between atoms: _185  and  _188
REMARK   77  A    between atoms: _188  and  _189
REMARK   78  A    between atoms: _189  and  _190
REMARK   79  A    between atoms: _192  and  _194
REMARK   80  A    between atoms: _194  and  _195
REMARK   81  A    between atoms: _194  and  _197
REMARK   82  A    between atoms: _197  and  _198
REMARK   83  A    between atoms: _200  and  _202
REMARK   84  A    between atoms: _202  and  _203
REMARK   85  A    between atoms: _202  and  _205
REMARK   86  A    between atoms: _205  and  _206
REMARK   87  A    between atoms: _209  and  _211
REMARK   88  A    between atoms: _211  and  _212
REMARK   89  A    between atoms: _211  and  _214
REMARK   90  A    between atoms: _214  and  _215
REMARK   91  A    between atoms: _215  and  _216
REMARK   92  A    between atoms: _221  and  _223
REMARK   93  A    between atoms: _223  and  _224
REMARK   94  A    between atoms: _223  and  _226
REMARK   95  A    between atoms: _226  and  _227
REMARK   96  A    between atoms: _227  and  _228
REMARK   97  A    between atoms: _230  and  _232
REMARK   98  A    between atoms: _232  and  _233
REMARK   99  A    between atoms: _236  and  _238
REMARK  100  A    between atoms: _238  and  _239
REMARK  101  A    between atoms: _238  and  _241
REMARK  102  A    between atoms: _241  and  _242
REMARK  103  A    between atoms: _248  and  _250
REMARK  104  A    between atoms: _250  and  _251
REMARK  105  A    between atoms: _250  and  _253
REMARK  106  A    between atoms: _253  and  _254
REMARK  107  A    between atoms: _257  and  _259
REMARK  108  A    between atoms: _259  and  _260
REMARK  109  A    between atoms: _259  and  _262
REMARK  110  A    between atoms: _262  and  _263
REMARK  111  A    between atoms: _263  and  _264
REMARK  112  A    between atoms: _267  and  _269
REMARK  113  A    between atoms: _269  and  _270
REMARK  114  A    between atoms: _269  and  _272
REMARK  115  A    between atoms: _274  and  _276
REMARK  116  A    between atoms: _276  and  _277
REMARK  117  A    between atoms: _276  and  _279
REMARK  118  A    between atoms: _279  and  _280
REMARK  119  A    between atoms: _283  and  _285
REMARK  120  A    between atoms: _285  and  _286
REMARK  121  A    between atoms: _285  and  _288
REMARK  122  A    between atoms: _288  and  _289
REMARK  123  A    between atoms: _291  and  _293
REMARK  124  A    between atoms: _293  and  _294
REMARK  125  A    between atoms: _293  and  _296
REMARK  126  A    between atoms: _296  and  _297
REMARK  127  A    between atoms: _300  and  _302
REMARK  128  A    between atoms: _302  and  _303
REMARK  129  A    between atoms: _302  and  _305
REMARK  130  A    between atoms: _305  and  _306
REMARK  131  A    between atoms: _306  and  _307
REMARK  132  A    between atoms: _312  and  _314
REMARK  133  A    between atoms: _314  and  _315
REMARK  134  A    between atoms: _314  and  _317
REMARK  135  A    between atoms: _317  and  _318
REMARK  136  A    between atoms: _318  and  _319
REMARK  137  A    between atoms: _324  and  _326
REMARK  138  A    between atoms: _326  and  _327
REMARK  139  A    between atoms: _329  and  _331
REMARK  140  A    between atoms: _331  and  _332
REMARK  141  A    between atoms: _331  and  _334
REMARK  142  A    between atoms: _334  and  _335
REMARK  143  A    between atoms: _337  and  _339
REMARK  144  A    between atoms: _339  and  _340
REMARK  145  A    between atoms: _339  and  _342
REMARK  146  A    between atoms: _342  and  _343
REMARK  147  A    between atoms: _343  and  _344
REMARK  148  A    between atoms: _344  and  _345
REMARK  149  A    between atoms: _354  and  _356
REMARK  150  A    between atoms: _356  and  _357
REMARK  151  A    between atoms: _360  and  _362
REMARK  152  A    between atoms: _362  and  _363
REMARK  153  A    between atoms: _362  and  _365
REMARK  154  A    between atoms: _368  and  _370
REMARK  155  A    between atoms: _370  and  _371
REMARK  156  A    between atoms: _373  and  _375
REMARK  157  A    between atoms: _375  and  _376
REMARK  158  A    between atoms: _378  and  _380
REMARK  159  A    between atoms: _380  and  _381
REMARK  160  A    between atoms: _380  and  _383
REMARK  161  A    between atoms: _383  and  _384
REMARK  162  A    between atoms: _387  and  _389
REMARK  163  A    between atoms: _389  and  _390
REMARK  164  A    between atoms: _393  and  _395
REMARK  165  A    between atoms: _395  and  _396
REMARK  166  A    between atoms: _395  and  _398
REMARK  167  A    between atoms: _401  and  _403
REMARK  168  A    between atoms: _403  and  _404
REMARK  169  A    between atoms: _406  and  _408
REMARK  170  A    between atoms: _408  and  _409
REMARK  171  A    between atoms: _408  and  _411
REMARK  172  A    between atoms: _411  and  _412
REMARK  173  A    between atoms: _412  and  _413
REMARK  174  A    between atoms: _416  and  _418
REMARK  175  A    between atoms: _418  and  _419
REMARK  176  A    between atoms: _418  and  _421
REMARK  177  A    between atoms: _421  and  _422
REMARK  178  A    between atoms: _427  and  _428
REMARK  179  A    between atoms: _430  and  _432
REMARK  180  A    between atoms: _432  and  _433
REMARK  181  A    between atoms: _432  and  _435
REMARK  182  A    between atoms: _435  and  _436
REMARK  183  A    between atoms: _439  and  _441
REMARK  184  A    between atoms: _441  and  _442
REMARK  185  A    between atoms: _441  and  _444
REMARK  186  A    between atoms: _444  and  _445
REMARK  187  A    between atoms: _445  and  _446
REMARK  188  A    between atoms: _448  and  _450
REMARK  189  A    between atoms: _450  and  _451
REMARK  190  A    between atoms: _453  and  _455
REMARK  191  A    between atoms: _455  and  _456
REMARK  192  A    between atoms: _455  and  _458
REMARK  193  A    between atoms: _461  and  _463
REMARK  194  A    between atoms: _463  and  _464
REMARK  195  A    between atoms: _466  and  _468
REMARK  196  A    between atoms: _468  and  _469
REMARK  197  A    between atoms: _468  and  _471
REMARK  198  A    between atoms: _471  and  _472
REMARK  199  A    between atoms: _478  and  _480
REMARK  200  A    between atoms: _480  and  _481
REMARK  201  A    between atoms: _480  and  _483
REMARK  202  A    between atoms: _483  and  _484
REMARK  203  A    between atoms: _487  and  _489
REMARK  204  A    between atoms: _489  and  _490
REMARK  205  A    between atoms: _489  and  _492
REMARK  206  A    between atoms: _494  and  _496
REMARK  207  A    between atoms: _496  and  _497
REMARK  208  A    between atoms: _496  and  _499
REMARK  209  A    between atoms: _502  and  _504
REMARK  210  A    between atoms: _504  and  _505
REMARK  211  A    between atoms: _504  and  _507
REMARK  212  A    between atoms: _507  and  _508
REMARK  213  A    between atoms: _511  and  _513
REMARK  214  A    between atoms: _513  and  _514
REMARK  215  A    between atoms: _513  and  _516
REMARK  216  A    between atoms: _516  and  _517
REMARK  217  A    between atoms: _517  and  _518
REMARK  218  A    between atoms: _518  and  _519
REMARK                            x       y       z     vdW  Elec       q    Type
REMARK                         _______ _______ _______ _____ _____    ______ ____
ROOT
ATOM      1  O   HOH     1      12.816  19.581  81.984  0.00  0.00    +0.000 OA
ENDROOT
TORSDOF 0
REMARK  Name = ../refined-set-2016/4leq/4leq_pocket.pdb
REMARK  218 active torsions:
REMARK  status: ('A' for Active; 'I' for Inactive)
REMARK    1  A    between atoms: _1  and  _3
REMARK    2  A    between atoms: _3  and  _4
REMARK    3  A    between atoms: _3  and  _6
REMARK    4  A    between atoms: _6  and  _7
REMARK    5  A    between atoms: _7  and  _8
REMARK    6  A    between atoms: _11  and  _12
REMARK    7  A    between atoms: _17  and  _19
REMARK    8  A    between atoms: _19  and  _20
REMARK    9  A    between atoms: _19  and  _22
REMARK   10  A    between atoms: _25  and  _27
REMARK   11  A    between atoms: _27  and  _28
REMARK   12  A    between atoms: _30  and  _32
REMARK   13  A    between atoms: _32  and  _33
REMARK   14  A    between atoms: _32  and  _35
REMARK   15  A    between atoms: _35  and  _36
REMARK   16  A    between atoms: _39  and  _41
REMARK   17  A    between atoms: _41  and  _42
REMARK   18  A    between atoms: _45  and  _47
REMARK   19  A    between atoms: _47  and  _48
REMARK   20  A    between atoms: _47  and  _50
REMARK   21  A    between atoms: _50  and  _51
REMARK   22  A    between atoms: _54  and  _56
REMARK   23  A    between atoms: _56  and  _57
REMARK   24  A    between atoms: _59  and  _61
REMARK   25  A    between atoms: _61  and  _62
REMARK   26  A    between atoms: _61  and  _64
REMARK   27  A    between atoms: _64  and  _65
REMARK   28  A    between atoms: _70  and  _72
REMARK   29  A    between atoms: _72  and  _73
REMARK   30  A    between atoms: _72  and  _75
REMARK   31  A    between atoms: _75  and  _76
REMARK   32  A    between atoms: _79  and  _81
REMARK   33  A    between atoms: _81  and  _82
REMARK   34  A    between atoms: _81  and  _84
REMARK   35  A    between atoms: _84  and  _85
REMARK   36  A    between atoms: _90  and  _91
REMARK   37  A    between atoms: _93  and  _95
REMARK   38  A    between atoms: _95  and  _96
REMARK   39  A    between atoms: _95  and  _98
REMARK   40  A    between atoms: _98  and  _99
REMARK   41  A    between atoms: _104  and  _106
REMARK   42  A    between atoms: _106  and  _107
REMARK   43  A    between atoms: _106  and  _109
REMARK   44  A    between atoms: _109  and  _110
REMARK   45  A    between atoms: _113  and  _115
REMARK   46  A    between atoms: _115  and  _116
REMARK   47  A    between atoms: _115  and  _118
REMARK   48  A    between atoms: _118  and  _119
REMARK   49  A    between atoms: _122  and  _124
REMARK   50  A    between atoms: _124  and  _125
REMARK   51  A    between atoms: _124  and  _127
REMARK   52  A    between atoms: _127  and  _128
REMARK   53  A    between atoms: _131  and  _133
REMARK   54  A    between atoms: _133  and  _134
REMARK   55  A    between atoms: _133  and  _136
REMARK   56  A    between atoms: _136  and  _137
REMARK   57  A    between atoms: _139  and  _141
REMARK   58  A    between atoms: _141  and  _142
REMARK   59  A    between atoms: _144  and  _146
REMARK   60  A    between atoms: _146  and  _147
REMARK   61  A    between atoms: _149  and  _151
REMARK   62  A    between atoms: _151  and  _152
REMARK   63  A    between atoms: _151  and  _154
REMARK   64  A    between atoms: _154  and  _155
REMARK   65  A    between atoms: _160  and  _161
REMARK   66  A    between atoms: _163  and  _165
REMARK   67  A    between atoms: _165  and  _166
REMARK   68  A    between atoms: _165  and  _168
REMARK   69  A    between atoms: _168  and  _169
REMARK   70  A    between atoms: _169  and  _170
REMARK   71  A    between atoms: _175  and  _177
REMARK   72  A    between atoms: _177  and  _178
REMARK   73  A    between atoms: _177  and  _180
REMARK   74  A    between atoms: _183  and  _185
REMARK   75  A    between atoms: _185  and  _186
REMARK   76  A    between atoms: _185  and  _188
REMARK   77  A    between atoms: _188  and  _189
REMARK   78  A    between atoms: _189  and  _190
REMARK   79  A    between atoms: _192  and  _194
REMARK   80  A    between atoms: _194  and  _195
REMARK   81  A    between atoms: _194  and  _197
REMARK   82  A    between atoms: _197  and  _198
REMARK   83  A    between atoms: _200  and  _202
REMARK   84  A    between atoms: _202  and  _203
REMARK   85  A    between atoms: _202  and  _205
REMARK   86  A    between atoms: _205  and  _206
REMARK   87  A    between atoms: _209  and  _211
REMARK   88  A    between atoms: _211  and  _212
REMARK   89  A    between atoms: _211  and  _214
REMARK   90  A    between atoms: _214  and  _215
REMARK   91  A    between atoms: _215  and  _216
REMARK   92  A    between atoms: _221  and  _223
REMARK   93  A    between atoms: _223  and  _224
REMARK   94  A    between atoms: _223  and  _226
REMARK   95  A    between atoms: _226  and  _227
REMARK   96  A    between atoms: _227  and  _228
REMARK   97  A    between atoms: _230  and  _232
REMARK   98  A    between atoms: _232  and  _233
REMARK   99  A    between atoms: _236  and  _238
REMARK  100  A    between atoms: _238  and  _239
REMARK  101  A    between atoms: _238  and  _241
REMARK  102  A    between atoms: _241  and  _242
REMARK  103  A    between atoms: _248  and  _250
REMARK  104  A    between atoms: _250  and  _251
REMARK  105  A    between atoms: _250  and  _253
REMARK  106  A    between atoms: _253  and  _254
REMARK  107  A    between atoms: _257  and  _259
REMARK  108  A    between atoms: _259  and  _260
REMARK  109  A    between atoms: _259  and  _262
REMARK  110  A    between atoms: _262  and  _263
REMARK  111  A    between atoms: _263  and  _264
REMARK  112  A    between atoms: _267  and  _269
REMARK  113  A    between atoms: _269  and  _270
REMARK  114  A    between atoms: _269  and  _272
REMARK  115  A    between atoms: _274  and  _276
REMARK  116  A    between atoms: _276  and  _277
REMARK  117  A    between atoms: _276  and  _279
REMARK  118  A    between atoms: _279  and  _280
REMARK  119  A    between atoms: _283  and  _285
REMARK  120  A    between atoms: _285  and  _286
REMARK  121  A    between atoms: _285  and  _288
REMARK  122  A    between atoms: _288  and  _289
REMARK  123  A    between atoms: _291  and  _293
REMARK  124  A    between atoms: _293  and  _294
REMARK  125  A    between atoms: _293  and  _296
REMARK  126  A    between atoms: _296  and  _297
REMARK  127  A    between atoms: _300  and  _302
REMARK  128  A    between atoms: _302  and  _303
REMARK  129  A    between atoms: _302  and  _305
REMARK  130  A    between atoms: _305  and  _306
REMARK  131  A    between atoms: _306  and  _307
REMARK  132  A    between atoms: _312  and  _314
REMARK  133  A    between atoms: _314  and  _315
REMARK  134  A    between atoms: _314  and  _317
REMARK  135  A    between atoms: _317  and  _318
REMARK  136  A    between atoms: _318  and  _319
REMARK  137  A    between atoms: _324  and  _326
REMARK  138  A    between atoms: _326  and  _327
REMARK  139  A    between atoms: _329  and  _331
REMARK  140  A    between atoms: _331  and  _332
REMARK  141  A    between atoms: _331  and  _334
REMARK  142  A    between atoms: _334  and  _335
REMARK  143  A    between atoms: _337  and  _339
REMARK  144  A    between atoms: _339  and  _340
REMARK  145  A    between atoms: _339  and  _342
REMARK  146  A    between atoms: _342  and  _343
REMARK  147  A    between atoms: _343  and  _344
REMARK  148  A    between atoms: _344  and  _345
REMARK  149  A    between atoms: _354  and  _356
REMARK  150  A    between atoms: _356  and  _357
REMARK  151  A    between atoms: _360  and  _362
REMARK  152  A    between atoms: _362  and  _363
REMARK  153  A    between atoms: _362  and  _365
REMARK  154  A    between atoms: _368  and  _370
REMARK  155  A    between atoms: _370  and  _371
REMARK  156  A    between atoms: _373  and  _375
REMARK  157  A    between atoms: _375  and  _376
REMARK  158  A    between atoms: _378  and  _380
REMARK  159  A    between atoms: _380  and  _381
REMARK  160  A    between atoms: _380  and  _383
REMARK  161  A    between atoms: _383  and  _384
REMARK  162  A    between atoms: _387  and  _389
REMARK  163  A    between atoms: _389  and  _390
REMARK  164  A    between atoms: _393  and  _395
REMARK  165  A    between atoms: _395  and  _396
REMARK  166  A    between atoms: _395  and  _398
REMARK  167  A    between atoms: _401  and  _403
REMARK  168  A    between atoms: _403  and  _404
REMARK  169  A    between atoms: _406  and  _408
REMARK  170  A    between atoms: _408  and  _409
REMARK  171  A    between atoms: _408  and  _411
REMARK  172  A    between atoms: _411  and  _412
REMARK  173  A    between atoms: _412  and  _413
REMARK  174  A    between atoms: _416  and  _418
REMARK  175  A    between atoms: _418  and  _419
REMARK  176  A    between atoms: _418  and  _421
REMARK  177  A    between atoms: _421  and  _422
REMARK  178  A    between atoms: _427  and  _428
REMARK  179  A    between atoms: _430  and  _432
REMARK  180  A    between atoms: _432  and  _433
REMARK  181  A    between atoms: _432  and  _435
REMARK  182  A    between atoms: _435  and  _436
REMARK  183  A    between atoms: _439  and  _441
REMARK  184  A    between atoms: _441  and  _442
REMARK  185  A    between atoms: _441  and  _444
REMARK  186  A    between atoms: _444  and  _445
REMARK  187  A    between atoms: _445  and  _446
REMARK  188  A    between atoms: _448  and  _450
REMARK  189  A    between atoms: _450  and  _451
REMARK  190  A    between atoms: _453  and  _455
REMARK  191  A    between atoms: _455  and  _456
REMARK  192  A    between atoms: _455  and  _458
REMARK  193  A    between atoms: _461  and  _463
REMARK  194  A    between atoms: _463  and  _464
REMARK  195  A    between atoms: _466  and  _468
REMARK  196  A    between atoms: _468  and  _469
REMARK  197  A    between atoms: _468  and  _471
REMARK  198  A    between atoms: _471  and  _472
REMARK  199  A    between atoms: _478  and  _480
REMARK  200  A    between atoms: _480  and  _481
REMARK  201  A    between atoms: _480  and  _483
REMARK  202  A    between atoms: _483  and  _484
REMARK  203  A    between atoms: _487  and  _489
REMARK  204  A    between atoms: _489  and  _490
REMARK  205  A    between atoms: _489  and  _492
REMARK  206  A    between atoms: _494  and  _496
REMARK  207  A    between atoms: _496  and  _497
REMARK  208  A    between atoms: _496  and  _499
REMARK  209  A    between atoms: _502  and  _504
REMARK  210  A    between atoms: _504  and  _505
REMARK  211  A    between atoms: _504  and  _507
REMARK  212  A    between atoms: _507  and  _508
REMARK  213  A    between atoms: _511  and  _513
REMARK  214  A    between atoms: _513  and  _514
REMARK  215  A    between atoms: _513  and  _516
REMARK  216  A    between atoms: _516  and  _517
REMARK  217  A    between atoms: _517  and  _518
REMARK  218  A    between atoms: _518  and  _519
REMARK                            x       y       z     vdW  Elec       q    Type
REMARK                         _______ _______ _______ _____ _____    ______ ____
ROOT
ATOM      1  O   HOH     1      15.620  15.651  81.583  0.00  0.00    +0.000 OA
ENDROOT
TORSDOF 0
REMARK  Name = ../refined-set-2016/4leq/4leq_pocket.pdb
REMARK  218 active torsions:
REMARK  status: ('A' for Active; 'I' for Inactive)
REMARK    1  A    between atoms: _1  and  _3
REMARK    2  A    between atoms: _3  and  _4
REMARK    3  A    between atoms: _3  and  _6
REMARK    4  A    between atoms: _6  and  _7
REMARK    5  A    between atoms: _7  and  _8
REMARK    6  A    between atoms: _11  and  _12
REMARK    7  A    between atoms: _17  and  _19
REMARK    8  A    between atoms: _19  and  _20
REMARK    9  A    between atoms: _19  and  _22
REMARK   10  A    between atoms: _25  and  _27
REMARK   11  A    between atoms: _27  and  _28
REMARK   12  A    between atoms: _30  and  _32
REMARK   13  A    between atoms: _32  and  _33
REMARK   14  A    between atoms: _32  and  _35
REMARK   15  A    between atoms: _35  and  _36
REMARK   16  A    between atoms: _39  and  _41
REMARK   17  A    between atoms: _41  and  _42
REMARK   18  A    between atoms: _45  and  _47
REMARK   19  A    between atoms: _47  and  _48
REMARK   20  A    between atoms: _47  and  _50
REMARK   21  A    between atoms: _50  and  _51
REMARK   22  A    between atoms: _54  and  _56
REMARK   23  A    between atoms: _56  and  _57
REMARK   24  A    between atoms: _59  and  _61
REMARK   25  A    between atoms: _61  and  _62
REMARK   26  A    between atoms: _61  and  _64
REMARK   27  A    between atoms: _64  and  _65
REMARK   28  A    between atoms: _70  and  _72
REMARK   29  A    between atoms: _72  and  _73
REMARK   30  A    between atoms: _72  and  _75
REMARK   31  A    between atoms: _75  and  _76
REMARK   32  A    between atoms: _79  and  _81
REMARK   33  A    between atoms: _81  and  _82
REMARK   34  A    between atoms: _81  and  _84
REMARK   35  A    between atoms: _84  and  _85
REMARK   36  A    between atoms: _90  and  _91
REMARK   37  A    between atoms: _93  and  _95
REMARK   38  A    between atoms: _95  and  _96
REMARK   39  A    between atoms: _95  and  _98
REMARK   40  A    between atoms: _98  and  _99
REMARK   41  A    between atoms: _104  and  _106
REMARK   42  A    between atoms: _106  and  _107
REMARK   43  A    between atoms: _106  and  _109
REMARK   44  A    between atoms: _109  and  _110
REMARK   45  A    between atoms: _113  and  _115
REMARK   46  A    between atoms: _115  and  _116
REMARK   47  A    between atoms: _115  and  _118
REMARK   48  A    between atoms: _118  and  _119
REMARK   49  A    between atoms: _122  and  _124
REMARK   50  A    between atoms: _124  and  _125
REMARK   51  A    between atoms: _124  and  _127
REMARK   52  A    between atoms: _127  and  _128
REMARK   53  A    between atoms: _131  and  _133
REMARK   54  A    between atoms: _133  and  _134
REMARK   55  A    between atoms: _133  and  _136
REMARK   56  A    between atoms: _136  and  _137
REMARK   57  A    between atoms: _139  and  _141
REMARK   58  A    between atoms: _141  and  _142
REMARK   59  A    between atoms: _144  and  _146
REMARK   60  A    between atoms: _146  and  _147
REMARK   61  A    between atoms: _149  and  _151
REMARK   62  A    between atoms: _151  and  _152
REMARK   63  A    between atoms: _151  and  _154
REMARK   64  A    between atoms: _154  and  _155
REMARK   65  A    between atoms: _160  and  _161
REMARK   66  A    between atoms: _163  and  _165
REMARK   67  A    between atoms: _165  and  _166
REMARK   68  A    between atoms: _165  and  _168
REMARK   69  A    between atoms: _168  and  _169
REMARK   70  A    between atoms: _169  and  _170
REMARK   71  A    between atoms: _175  and  _177
REMARK   72  A    between atoms: _177  and  _178
REMARK   73  A    between atoms: _177  and  _180
REMARK   74  A    between atoms: _183  and  _185
REMARK   75  A    between atoms: _185  and  _186
REMARK   76  A    between atoms: _185  and  _188
REMARK   77  A    between atoms: _188  and  _189
REMARK   78  A    between atoms: _189  and  _190
REMARK   79  A    between atoms: _192  and  _194
REMARK   80  A    between atoms: _194  and  _195
REMARK   81  A    between atoms: _194  and  _197
REMARK   82  A    between atoms: _197  and  _198
REMARK   83  A    between atoms: _200  and  _202
REMARK   84  A    between atoms: _202  and  _203
REMARK   85  A    between atoms: _202  and  _205
REMARK   86  A    between atoms: _205  and  _206
REMARK   87  A    between atoms: _209  and  _211
REMARK   88  A    between atoms: _211  and  _212
REMARK   89  A    between atoms: _211  and  _214
REMARK   90  A    between atoms: _214  and  _215
REMARK   91  A    between atoms: _215  and  _216
REMARK   92  A    between atoms: _221  and  _223
REMARK   93  A    between atoms: _223  and  _224
REMARK   94  A    between atoms: _223  and  _226
REMARK   95  A    between atoms: _226  and  _227
REMARK   96  A    between atoms: _227  and  _228
REMARK   97  A    between atoms: _230  and  _232
REMARK   98  A    between atoms: _232  and  _233
REMARK   99  A    between atoms: _236  and  _238
REMARK  100  A    between atoms: _238  and  _239
REMARK  101  A    between atoms: _238  and  _241
REMARK  102  A    between atoms: _241  and  _242
REMARK  103  A    between atoms: _248  and  _250
REMARK  104  A    between atoms: _250  and  _251
REMARK  105  A    between atoms: _250  and  _253
REMARK  106  A    between atoms: _253  and  _254
REMARK  107  A    between atoms: _257  and  _259
REMARK  108  A    between atoms: _259  and  _260
REMARK  109  A    between atoms: _259  and  _262
REMARK  110  A    between atoms: _262  and  _263
REMARK  111  A    between atoms: _263  and  _264
REMARK  112  A    between atoms: _267  and  _269
REMARK  113  A    between atoms: _269  and  _270
REMARK  114  A    between atoms: _269  and  _272
REMARK  115  A    between atoms: _274  and  _276
REMARK  116  A    between atoms: _276  and  _277
REMARK  117  A    between atoms: _276  and  _279
REMARK  118  A    between atoms: _279  and  _280
REMARK  119  A    between atoms: _283  and  _285
REMARK  120  A    between atoms: _285  and  _286
REMARK  121  A    between atoms: _285  and  _288
REMARK  122  A    between atoms: _288  and  _289
REMARK  123  A    between atoms: _291  and  _293
REMARK  124  A    between atoms: _293  and  _294
REMARK  125  A    between atoms: _293  and  _296
REMARK  126  A    between atoms: _296  and  _297
REMARK  127  A    between atoms: _300  and  _302
REMARK  128  A    between atoms: _302  and  _303
REMARK  129  A    between atoms: _302  and  _305
REMARK  130  A    between atoms: _305  and  _306
REMARK  131  A    between atoms: _306  and  _307
REMARK  132  A    between atoms: _312  and  _314
REMARK  133  A    between atoms: _314  and  _315
REMARK  134  A    between atoms: _314  and  _317
REMARK  135  A    between atoms: _317  and  _318
REMARK  136  A    between atoms: _318  and  _319
REMARK  137  A    between atoms: _324  and  _326
REMARK  138  A    between atoms: _326  and  _327
REMARK  139  A    between atoms: _329  and  _331
REMARK  140  A    between atoms: _331  and  _332
REMARK  141  A    between atoms: _331  and  _334
REMARK  142  A    between atoms: _334  and  _335
REMARK  143  A    between atoms: _337  and  _339
REMARK  144  A    between atoms: _339  and  _340
REMARK  145  A    between atoms: _339  and  _342
REMARK  146  A    between atoms: _342  and  _343
REMARK  147  A    between atoms: _343  and  _344
REMARK  148  A    between atoms: _344  and  _345
REMARK  149  A    between atoms: _354  and  _356
REMARK  150  A    between atoms: _356  and  _357
REMARK  151  A    between atoms: _360  and  _362
REMARK  152  A    between atoms: _362  and  _363
REMARK  153  A    between atoms: _362  and  _365
REMARK  154  A    between atoms: _368  and  _370
REMARK  155  A    between atoms: _370  and  _371
REMARK  156  A    between atoms: _373  and  _375
REMARK  157  A    between atoms: _375  and  _376
REMARK  158  A    between atoms: _378  and  _380
REMARK  159  A    between atoms: _380  and  _381
REMARK  160  A    between atoms: _380  and  _383
REMARK  161  A    between atoms: _383  and  _384
REMARK  162  A    between atoms: _387  and  _389
REMARK  163  A    between atoms: _389  and  _390
REMARK  164  A    between atoms: _393  and  _395
REMARK  165  A    between atoms: _395  and  _396
REMARK  166  A    between atoms: _395  and  _398
REMARK  167  A    between atoms: _401  and  _403
REMARK  168  A    between atoms: _403  and  _404
REMARK  169  A    between atoms: _406  and  _408
REMARK  170  A    between atoms: _408  and  _409
REMARK  171  A    between atoms: _408  and  _411
REMARK  172  A    between atoms: _411  and  _412
REMARK  173  A    between atoms: _412  and  _413
REMARK  174  A    between atoms: _416  and  _418
REMARK  175  A    between atoms: _418  and  _419
REMARK  176  A    between atoms: _418  and  _421
REMARK  177  A    between atoms: _421  and  _422
REMARK  178  A    between atoms: _427  and  _428
REMARK  179  A    between atoms: _430  and  _432
REMARK  180  A    between atoms: _432  and  _433
REMARK  181  A    between atoms: _432  and  _435
REMARK  182  A    between atoms: _435  and  _436
REMARK  183  A    between atoms: _439  and  _441
REMARK  184  A    between atoms: _441  and  _442
REMARK  185  A    between atoms: _441  and  _444
REMARK  186  A    between atoms: _444  and  _445
REMARK  187  A    between atoms: _445  and  _446
REMARK  188  A    between atoms: _448  and  _450
REMARK  189  A    between atoms: _450  and  _451
REMARK  190  A    between atoms: _453  and  _455
REMARK  191  A    between atoms: _455  and  _456
REMARK  192  A    between atoms: _455  and  _458
REMARK  193  A    between atoms: _461  and  _463
REMARK  194  A    between atoms: _463  and  _464
REMARK  195  A    between atoms: _466  and  _468
REMARK  196  A    between atoms: _468  and  _469
REMARK  197  A    between atoms: _468  and  _471
REMARK  198  A    between atoms: _471  and  _472
REMARK  199  A    between atoms: _478  and  _480
REMARK  200  A    between atoms: _480  and  _481
REMARK  201  A    between atoms: _480  and  _483
REMARK  202  A    between atoms: _483  and  _484
REMARK  203  A    between atoms: _487  and  _489
REMARK  204  A    between atoms: _489  and  _490
REMARK  205  A    between atoms: _489  and  _492
REMARK  206  A    between atoms: _494  and  _496
REMARK  207  A    between atoms: _496  and  _497
REMARK  208  A    between atoms: _496  and  _499
REMARK  209  A    between atoms: _502  and  _504
REMARK  210  A    between atoms: _504  and  _505
REMARK  211  A    between atoms: _504  and  _507
REMARK  212  A    between atoms: _507  and  _508
REMARK  213  A    between atoms: _511  and  _513
REMARK  214  A    between atoms: _513  and  _514
REMARK  215  A    between atoms: _513  and  _516
REMARK  216  A    between atoms: _516  and  _517
REMARK  217  A    between atoms: _517  and  _518
REMARK  218  A    between atoms: _518  and  _519
REMARK                            x       y       z     vdW  Elec       q    Type
REMARK                         _______ _______ _______ _____ _____    ______ ____
ROOT
ATOM      1  O   HOH     1      13.129  17.894  77.532  0.00  0.00    +0.000 OA
ENDROOT
TORSDOF 0
REMARK  Name = ../refined-set-2016/4leq/4leq_pocket.pdb
REMARK  218 active torsions:
REMARK  status: ('A' for Active; 'I' for Inactive)
REMARK    1  A    between atoms: _1  and  _3
REMARK    2  A    between atoms: _3  and  _4
REMARK    3  A    between atoms: _3  and  _6
REMARK    4  A    between atoms: _6  and  _7
REMARK    5  A    between atoms: _7  and  _8
REMARK    6  A    between atoms: _11  and  _12
REMARK    7  A    between atoms: _17  and  _19
REMARK    8  A    between atoms: _19  and  _20
REMARK    9  A    between atoms: _19  and  _22
REMARK   10  A    between atoms: _25  and  _27
REMARK   11  A    between atoms: _27  and  _28
REMARK   12  A    between atoms: _30  and  _32
REMARK   13  A    between atoms: _32  and  _33
REMARK   14  A    between atoms: _32  and  _35
REMARK   15  A    between atoms: _35  and  _36
REMARK   16  A    between atoms: _39  and  _41
REMARK   17  A    between atoms: _41  and  _42
REMARK   18  A    between atoms: _45  and  _47
REMARK   19  A    between atoms: _47  and  _48
REMARK   20  A    between atoms: _47  and  _50
REMARK   21  A    between atoms: _50  and  _51
REMARK   22  A    between atoms: _54  and  _56
REMARK   23  A    between atoms: _56  and  _57
REMARK   24  A    between atoms: _59  and  _61
REMARK   25  A    between atoms: _61  and  _62
REMARK   26  A    between atoms: _61  and  _64
REMARK   27  A    between atoms: _64  and  _65
REMARK   28  A    between atoms: _70  and  _72
REMARK   29  A    between atoms: _72  and  _73
REMARK   30  A    between atoms: _72  and  _75
REMARK   31  A    between atoms: _75  and  _76
REMARK   32  A    between atoms: _79  and  _81
REMARK   33  A    between atoms: _81  and  _82
REMARK   34  A    between atoms: _81  and  _84
REMARK   35  A    between atoms: _84  and  _85
REMARK   36  A    between atoms: _90  and  _91
REMARK   37  A    between atoms: _93  and  _95
REMARK   38  A    between atoms: _95  and  _96
REMARK   39  A    between atoms: _95  and  _98
REMARK   40  A    between atoms: _98  and  _99
REMARK   41  A    between atoms: _104  and  _106
REMARK   42  A    between atoms: _106  and  _107
REMARK   43  A    between atoms: _106  and  _109
REMARK   44  A    between atoms: _109  and  _110
REMARK   45  A    between atoms: _113  and  _115
REMARK   46  A    between atoms: _115  and  _116
REMARK   47  A    between atoms: _115  and  _118
REMARK   48  A    between atoms: _118  and  _119
REMARK   49  A    between atoms: _122  and  _124
REMARK   50  A    between atoms: _124  and  _125
REMARK   51  A    between atoms: _124  and  _127
REMARK   52  A    between atoms: _127  and  _128
REMARK   53  A    between atoms: _131  and  _133
REMARK   54  A    between atoms: _133  and  _134
REMARK   55  A    between atoms: _133  and  _136
REMARK   56  A    between atoms: _136  and  _137
REMARK   57  A    between atoms: _139  and  _141
REMARK   58  A    between atoms: _141  and  _142
REMARK   59  A    between atoms: _144  and  _146
REMARK   60  A    between atoms: _146  and  _147
REMARK   61  A    between atoms: _149  and  _151
REMARK   62  A    between atoms: _151  and  _152
REMARK   63  A    between atoms: _151  and  _154
REMARK   64  A    between atoms: _154  and  _155
REMARK   65  A    between atoms: _160  and  _161
REMARK   66  A    between atoms: _163  and  _165
REMARK   67  A    between atoms: _165  and  _166
REMARK   68  A    between atoms: _165  and  _168
REMARK   69  A    between atoms: _168  and  _169
REMARK   70  A    between atoms: _169  and  _170
REMARK   71  A    between atoms: _175  and  _177
REMARK   72  A    between atoms: _177  and  _178
REMARK   73  A    between atoms: _177  and  _180
REMARK   74  A    between atoms: _183  and  _185
REMARK   75  A    between atoms: _185  and  _186
REMARK   76  A    between atoms: _185  and  _188
REMARK   77  A    between atoms: _188  and  _189
REMARK   78  A    between atoms: _189  and  _190
REMARK   79  A    between atoms: _192  and  _194
REMARK   80  A    between atoms: _194  and  _195
REMARK   81  A    between atoms: _194  and  _197
REMARK   82  A    between atoms: _197  and  _198
REMARK   83  A    between atoms: _200  and  _202
REMARK   84  A    between atoms: _202  and  _203
REMARK   85  A    between atoms: _202  and  _205
REMARK   86  A    between atoms: _205  and  _206
REMARK   87  A    between atoms: _209  and  _211
REMARK   88  A    between atoms: _211  and  _212
REMARK   89  A    between atoms: _211  and  _214
REMARK   90  A    between atoms: _214  and  _215
REMARK   91  A    between atoms: _215  and  _216
REMARK   92  A    between atoms: _221  and  _223
REMARK   93  A    between atoms: _223  and  _224
REMARK   94  A    between atoms: _223  and  _226
REMARK   95  A    between atoms: _226  and  _227
REMARK   96  A    between atoms: _227  and  _228
REMARK   97  A    between atoms: _230  and  _232
REMARK   98  A    between atoms: _232  and  _233
REMARK   99  A    between atoms: _236  and  _238
REMARK  100  A    between atoms: _238  and  _239
REMARK  101  A    between atoms: _238  and  _241
REMARK  102  A    between atoms: _241  and  _242
REMARK  103  A    between atoms: _248  and  _250
REMARK  104  A    between atoms: _250  and  _251
REMARK  105  A    between atoms: _250  and  _253
REMARK  106  A    between atoms: _253  and  _254
REMARK  107  A    between atoms: _257  and  _259
REMARK  108  A    between atoms: _259  and  _260
REMARK  109  A    between atoms: _259  and  _262
REMARK  110  A    between atoms: _262  and  _263
REMARK  111  A    between atoms: _263  and  _264
REMARK  112  A    between atoms: _267  and  _269
REMARK  113  A    between atoms: _269  and  _270
REMARK  114  A    between atoms: _269  and  _272
REMARK  115  A    between atoms: _274  and  _276
REMARK  116  A    between atoms: _276  and  _277
REMARK  117  A    between atoms: _276  and  _279
REMARK  118  A    between atoms: _279  and  _280
REMARK  119  A    between atoms: _283  and  _285
REMARK  120  A    between atoms: _285  and  _286
REMARK  121  A    between atoms: _285  and  _288
REMARK  122  A    between atoms: _288  and  _289
REMARK  123  A    between atoms: _291  and  _293
REMARK  124  A    between atoms: _293  and  _294
REMARK  125  A    between atoms: _293  and  _296
REMARK  126  A    between atoms: _296  and  _297
REMARK  127  A    between atoms: _300  and  _302
REMARK  128  A    between atoms: _302  and  _303
REMARK  129  A    between atoms: _302  and  _305
REMARK  130  A    between atoms: _305  and  _306
REMARK  131  A    between atoms: _306  and  _307
REMARK  132  A    between atoms: _312  and  _314
REMARK  133  A    between atoms: _314  and  _315
REMARK  134  A    between atoms: _314  and  _317
REMARK  135  A    between atoms: _317  and  _318
REMARK  136  A    between atoms: _318  and  _319
REMARK  137  A    between atoms: _324  and  _326
REMARK  138  A    between atoms: _326  and  _327
REMARK  139  A    between atoms: _329  and  _331
REMARK  140  A    between atoms: _331  and  _332
REMARK  141  A    between atoms: _331  and  _334
REMARK  142  A    between atoms: _334  and  _335
REMARK  143  A    between atoms: _337  and  _339
REMARK  144  A    between atoms: _339  and  _340
REMARK  145  A    between atoms: _339  and  _342
REMARK  146  A    between atoms: _342  and  _343
REMARK  147  A    between atoms: _343  and  _344
REMARK  148  A    between atoms: _344  and  _345
REMARK  149  A    between atoms: _354  and  _356
REMARK  150  A    between atoms: _356  and  _357
REMARK  151  A    between atoms: _360  and  _362
REMARK  152  A    between atoms: _362  and  _363
REMARK  153  A    between atoms: _362  and  _365
REMARK  154  A    between atoms: _368  and  _370
REMARK  155  A    between atoms: _370  and  _371
REMARK  156  A    between atoms: _373  and  _375
REMARK  157  A    between atoms: _375  and  _376
REMARK  158  A    between atoms: _378  and  _380
REMARK  159  A    between atoms: _380  and  _381
REMARK  160  A    between atoms: _380  and  _383
REMARK  161  A    between atoms: _383  and  _384
REMARK  162  A    between atoms: _387  and  _389
REMARK  163  A    between atoms: _389  and  _390
REMARK  164  A    between atoms: _393  and  _395
REMARK  165  A    between atoms: _395  and  _396
REMARK  166  A    between atoms: _395  and  _398
REMARK  167  A    between atoms: _401  and  _403
REMARK  168  A    between atoms: _403  and  _404
REMARK  169  A    between atoms: _406  and  _408
REMARK  170  A    between atoms: _408  and  _409
REMARK  171  A    between atoms: _408  and  _411
REMARK  172  A    between atoms: _411  and  _412
REMARK  173  A    between atoms: _412  and  _413
REMARK  174  A    between atoms: _416  and  _418
REMARK  175  A    between atoms: _418  and  _419
REMARK  176  A    between atoms: _418  and  _421
REMARK  177  A    between atoms: _421  and  _422
REMARK  178  A    between atoms: _427  and  _428
REMARK  179  A    between atoms: _430  and  _432
REMARK  180  A    between atoms: _432  and  _433
REMARK  181  A    between atoms: _432  and  _435
REMARK  182  A    between atoms: _435  and  _436
REMARK  183  A    between atoms: _439  and  _441
REMARK  184  A    between atoms: _441  and  _442
REMARK  185  A    between atoms: _441  and  _444
REMARK  186  A    between atoms: _444  and  _445
REMARK  187  A    between atoms: _445  and  _446
REMARK  188  A    between atoms: _448  and  _450
REMARK  189  A    between atoms: _450  and  _451
REMARK  190  A    between atoms: _453  and  _455
REMARK  191  A    between atoms: _455  and  _456
REMARK  192  A    between atoms: _455  and  _458
REMARK  193  A    between atoms: _461  and  _463
REMARK  194  A    between atoms: _463  and  _464
REMARK  195  A    between atoms: _466  and  _468
REMARK  196  A    between atoms: _468  and  _469
REMARK  197  A    between atoms: _468  and  _471
REMARK  198  A    between atoms: _471  and  _472
REMARK  199  A    between atoms: _478  and  _480
REMARK  200  A    between atoms: _480  and  _481
REMARK  201  A    between atoms: _480  and  _483
REMARK  202  A    between atoms: _483  and  _484
REMARK  203  A    between atoms: _487  and  _489
REMARK  204  A    between atoms: _489  and  _490
REMARK  205  A    between atoms: _489  and  _492
REMARK  206  A    between atoms: _494  and  _496
REMARK  207  A    between atoms: _496  and  _497
REMARK  208  A    between atoms: _496  and  _499
REMARK  209  A    between atoms: _502  and  _504
REMARK  210  A    between atoms: _504  and  _505
REMARK  211  A    between atoms: _504  and  _507
REMARK  212  A    between atoms: _507  and  _508
REMARK  213  A    between atoms: _511  and  _513
REMARK  214  A    between atoms: _513  and  _514
REMARK  215  A    between atoms: _513  and  _516
REMARK  216  A    between atoms: _516  and  _517
REMARK  217  A    between atoms: _517  and  _518
REMARK  218  A    between atoms: _518  and  _519
REMARK                            x       y       z     vdW  Elec       q    Type
REMARK                         _______ _______ _______ _____ _____    ______ ____
ROOT
ATOM      1  O   HOH     1      13.190  16.368  79.554  0.00  0.00    +0.000 OA
ENDROOT
TORSDOF 0
REMARK  Name = ../refined-set-2016/4leq/4leq_pocket.pdb
REMARK  218 active torsions:
REMARK  status: ('A' for Active; 'I' for Inactive)
REMARK    1  A    between atoms: _1  and  _3
REMARK    2  A    between atoms: _3  and  _4
REMARK    3  A    between atoms: _3  and  _6
REMARK    4  A    between atoms: _6  and  _7
REMARK    5  A    between atoms: _7  and  _8
REMARK    6  A    between atoms: _11  and  _12
REMARK    7  A    between atoms: _17  and  _19
REMARK    8  A    between atoms: _19  and  _20
REMARK    9  A    between atoms: _19  and  _22
REMARK   10  A    between atoms: _25  and  _27
REMARK   11  A    between atoms: _27  and  _28
REMARK   12  A    between atoms: _30  and  _32
REMARK   13  A    between atoms: _32  and  _33
REMARK   14  A    between atoms: _32  and  _35
REMARK   15  A    between atoms: _35  and  _36
REMARK   16  A    between atoms: _39  and  _41
REMARK   17  A    between atoms: _41  and  _42
REMARK   18  A    between atoms: _45  and  _47
REMARK   19  A    between atoms: _47  and  _48
REMARK   20  A    between atoms: _47  and  _50
REMARK   21  A    between atoms: _50  and  _51
REMARK   22  A    between atoms: _54  and  _56
REMARK   23  A    between atoms: _56  and  _57
REMARK   24  A    between atoms: _59  and  _61
REMARK   25  A    between atoms: _61  and  _62
REMARK   26  A    between atoms: _61  and  _64
REMARK   27  A    between atoms: _64  and  _65
REMARK   28  A    between atoms: _70  and  _72
REMARK   29  A    between atoms: _72  and  _73
REMARK   30  A    between atoms: _72  and  _75
REMARK   31  A    between atoms: _75  and  _76
REMARK   32  A    between atoms: _79  and  _81
REMARK   33  A    between atoms: _81  and  _82
REMARK   34  A    between atoms: _81  and  _84
REMARK   35  A    between atoms: _84  and  _85
REMARK   36  A    between atoms: _90  and  _91
REMARK   37  A    between atoms: _93  and  _95
REMARK   38  A    between atoms: _95  and  _96
REMARK   39  A    between atoms: _95  and  _98
REMARK   40  A    between atoms: _98  and  _99
REMARK   41  A    between atoms: _104  and  _106
REMARK   42  A    between atoms: _106  and  _107
REMARK   43  A    between atoms: _106  and  _109
REMARK   44  A    between atoms: _109  and  _110
REMARK   45  A    between atoms: _113  and  _115
REMARK   46  A    between atoms: _115  and  _116
REMARK   47  A    between atoms: _115  and  _118
REMARK   48  A    between atoms: _118  and  _119
REMARK   49  A    between atoms: _122  and  _124
REMARK   50  A    between atoms: _124  and  _125
REMARK   51  A    between atoms: _124  and  _127
REMARK   52  A    between atoms: _127  and  _128
REMARK   53  A    between atoms: _131  and  _133
REMARK   54  A    between atoms: _133  and  _134
REMARK   55  A    between atoms: _133  and  _136
REMARK   56  A    between atoms: _136  and  _137
REMARK   57  A    between atoms: _139  and  _141
REMARK   58  A    between atoms: _141  and  _142
REMARK   59  A    between atoms: _144  and  _146
REMARK   60  A    between atoms: _146  and  _147
REMARK   61  A    between atoms: _149  and  _151
REMARK   62  A    between atoms: _151  and  _152
REMARK   63  A    between atoms: _151  and  _154
REMARK   64  A    between atoms: _154  and  _155
REMARK   65  A    between atoms: _160  and  _161
REMARK   66  A    between atoms: _163  and  _165
REMARK   67  A    between atoms: _165  and  _166
REMARK   68  A    between atoms: _165  and  _168
REMARK   69  A    between atoms: _168  and  _169
REMARK   70  A    between atoms: _169  and  _170
REMARK   71  A    between atoms: _175  and  _177
REMARK   72  A    between atoms: _177  and  _178
REMARK   73  A    between atoms: _177  and  _180
REMARK   74  A    between atoms: _183  and  _185
REMARK   75  A    between atoms: _185  and  _186
REMARK   76  A    between atoms: _185  and  _188
REMARK   77  A    between atoms: _188  and  _189
REMARK   78  A    between atoms: _189  and  _190
REMARK   79  A    between atoms: _192  and  _194
REMARK   80  A    between atoms: _194  and  _195
REMARK   81  A    between atoms: _194  and  _197
REMARK   82  A    between atoms: _197  and  _198
REMARK   83  A    between atoms: _200  and  _202
REMARK   84  A    between atoms: _202  and  _203
REMARK   85  A    between atoms: _202  and  _205
REMARK   86  A    between atoms: _205  and  _206
REMARK   87  A    between atoms: _209  and  _211
REMARK   88  A    between atoms: _211  and  _212
REMARK   89  A    between atoms: _211  and  _214
REMARK   90  A    between atoms: _214  and  _215
REMARK   91  A    between atoms: _215  and  _216
REMARK   92  A    between atoms: _221  and  _223
REMARK   93  A    between atoms: _223  and  _224
REMARK   94  A    between atoms: _223  and  _226
REMARK   95  A    between atoms: _226  and  _227
REMARK   96  A    between atoms: _227  and  _228
REMARK   97  A    between atoms: _230  and  _232
REMARK   98  A    between atoms: _232  and  _233
REMARK   99  A    between atoms: _236  and  _238
REMARK  100  A    between atoms: _238  and  _239
REMARK  101  A    between atoms: _238  and  _241
REMARK  102  A    between atoms: _241  and  _242
REMARK  103  A    between atoms: _248  and  _250
REMARK  104  A    between atoms: _250  and  _251
REMARK  105  A    between atoms: _250  and  _253
REMARK  106  A    between atoms: _253  and  _254
REMARK  107  A    between atoms: _257  and  _259
REMARK  108  A    between atoms: _259  and  _260
REMARK  109  A    between atoms: _259  and  _262
REMARK  110  A    between atoms: _262  and  _263
REMARK  111  A    between atoms: _263  and  _264
REMARK  112  A    between atoms: _267  and  _269
REMARK  113  A    between atoms: _269  and  _270
REMARK  114  A    between atoms: _269  and  _272
REMARK  115  A    between atoms: _274  and  _276
REMARK  116  A    between atoms: _276  and  _277
REMARK  117  A    between atoms: _276  and  _279
REMARK  118  A    between atoms: _279  and  _280
REMARK  119  A    between atoms: _283  and  _285
REMARK  120  A    between atoms: _285  and  _286
REMARK  121  A    between atoms: _285  and  _288
REMARK  122  A    between atoms: _288  and  _289
REMARK  123  A    between atoms: _291  and  _293
REMARK  124  A    between atoms: _293  and  _294
REMARK  125  A    between atoms: _293  and  _296
REMARK  126  A    between atoms: _296  and  _297
REMARK  127  A    between atoms: _300  and  _302
REMARK  128  A    between atoms: _302  and  _303
REMARK  129  A    between atoms: _302  and  _305
REMARK  130  A    between atoms: _305  and  _306
REMARK  131  A    between atoms: _306  and  _307
REMARK  132  A    between atoms: _312  and  _314
REMARK  133  A    between atoms: _314  and  _315
REMARK  134  A    between atoms: _314  and  _317
REMARK  135  A    between atoms: _317  and  _318
REMARK  136  A    between atoms: _318  and  _319
REMARK  137  A    between atoms: _324  and  _326
REMARK  138  A    between atoms: _326  and  _327
REMARK  139  A    between atoms: _329  and  _331
REMARK  140  A    between atoms: _331  and  _332
REMARK  141  A    between atoms: _331  and  _334
REMARK  142  A    between atoms: _334  and  _335
REMARK  143  A    between atoms: _337  and  _339
REMARK  144  A    between atoms: _339  and  _340
REMARK  145  A    between atoms: _339  and  _342
REMARK  146  A    between atoms: _342  and  _343
REMARK  147  A    between atoms: _343  and  _344
REMARK  148  A    between atoms: _344  and  _345
REMARK  149  A    between atoms: _354  and  _356
REMARK  150  A    between atoms: _356  and  _357
REMARK  151  A    between atoms: _360  and  _362
REMARK  152  A    between atoms: _362  and  _363
REMARK  153  A    between atoms: _362  and  _365
REMARK  154  A    between atoms: _368  and  _370
REMARK  155  A    between atoms: _370  and  _371
REMARK  156  A    between atoms: _373  and  _375
REMARK  157  A    between atoms: _375  and  _376
REMARK  158  A    between atoms: _378  and  _380
REMARK  159  A    between atoms: _380  and  _381
REMARK  160  A    between atoms: _380  and  _383
REMARK  161  A    between atoms: _383  and  _384
REMARK  162  A    between atoms: _387  and  _389
REMARK  163  A    between atoms: _389  and  _390
REMARK  164  A    between atoms: _393  and  _395
REMARK  165  A    between atoms: _395  and  _396
REMARK  166  A    between atoms: _395  and  _398
REMARK  167  A    between atoms: _401  and  _403
REMARK  168  A    between atoms: _403  and  _404
REMARK  169  A    between atoms: _406  and  _408
REMARK  170  A    between atoms: _408  and  _409
REMARK  171  A    between atoms: _408  and  _411
REMARK  172  A    between atoms: _411  and  _412
REMARK  173  A    between atoms: _412  and  _413
REMARK  174  A    between atoms: _416  and  _418
REMARK  175  A    between atoms: _418  and  _419
REMARK  176  A    between atoms: _418  and  _421
REMARK  177  A    between atoms: _421  and  _422
REMARK  178  A    between atoms: _427  and  _428
REMARK  179  A    between atoms: _430  and  _432
REMARK  180  A    between atoms: _432  and  _433
REMARK  181  A    between atoms: _432  and  _435
REMARK  182  A    between atoms: _435  and  _436
REMARK  183  A    between atoms: _439  and  _441
REMARK  184  A    between atoms: _441  and  _442
REMARK  185  A    between atoms: _441  and  _444
REMARK  186  A    between atoms: _444  and  _445
REMARK  187  A    between atoms: _445  and  _446
REMARK  188  A    between atoms: _448  and  _450
REMARK  189  A    between atoms: _450  and  _451
REMARK  190  A    between atoms: _453  and  _455
REMARK  191  A    between atoms: _455  and  _456
REMARK  192  A    between atoms: _455  and  _458
REMARK  193  A    between atoms: _461  and  _463
REMARK  194  A    between atoms: _463  and  _464
REMARK  195  A    between atoms: _466  and  _468
REMARK  196  A    between atoms: _468  and  _469
REMARK  197  A    between atoms: _468  and  _471
REMARK  198  A    between atoms: _471  and  _472
REMARK  199  A    between atoms: _478  and  _480
REMARK  200  A    between atoms: _480  and  _481
REMARK  201  A    between atoms: _480  and  _483
REMARK  202  A    between atoms: _483  and  _484
REMARK  203  A    between atoms: _487  and  _489
REMARK  204  A    between atoms: _489  and  _490
REMARK  205  A    between atoms: _489  and  _492
REMARK  206  A    between atoms: _494  and  _496
REMARK  207  A    between atoms: _496  and  _497
REMARK  208  A    between atoms: _496  and  _499
REMARK  209  A    between atoms: _502  and  _504
REMARK  210  A    between atoms: _504  and  _505
REMARK  211  A    between atoms: _504  and  _507
REMARK  212  A    between atoms: _507  and  _508
REMARK  213  A    between atoms: _511  and  _513
REMARK  214  A    between atoms: _513  and  _514
REMARK  215  A    between atoms: _513  and  _516
REMARK  216  A    between atoms: _516  and  _517
REMARK  217  A    between atoms: _517  and  _518
REMARK  218  A    between atoms: _518  and  _519
REMARK                            x       y       z     vdW  Elec       q    Type
REMARK                         _______ _______ _______ _____ _____    ______ ____
ROOT
ATOM      1  O   HOH     1       7.459  24.171  85.214  0.00  0.00    +0.000 OA
ENDROOT
TORSDOF 0
REMARK  Name = ../refined-set-2016/4leq/4leq_pocket.pdb
REMARK  218 active torsions:
REMARK  status: ('A' for Active; 'I' for Inactive)
REMARK    1  A    between atoms: _1  and  _3
REMARK    2  A    between atoms: _3  and  _4
REMARK    3  A    between atoms: _3  and  _6
REMARK    4  A    between atoms: _6  and  _7
REMARK    5  A    between atoms: _7  and  _8
REMARK    6  A    between atoms: _11  and  _12
REMARK    7  A    between atoms: _17  and  _19
REMARK    8  A    between atoms: _19  and  _20
REMARK    9  A    between atoms: _19  and  _22
REMARK   10  A    between atoms: _25  and  _27
REMARK   11  A    between atoms: _27  and  _28
REMARK   12  A    between atoms: _30  and  _32
REMARK   13  A    between atoms: _32  and  _33
REMARK   14  A    between atoms: _32  and  _35
REMARK   15  A    between atoms: _35  and  _36
REMARK   16  A    between atoms: _39  and  _41
REMARK   17  A    between atoms: _41  and  _42
REMARK   18  A    between atoms: _45  and  _47
REMARK   19  A    between atoms: _47  and  _48
REMARK   20  A    between atoms: _47  and  _50
REMARK   21  A    between atoms: _50  and  _51
REMARK   22  A    between atoms: _54  and  _56
REMARK   23  A    between atoms: _56  and  _57
REMARK   24  A    between atoms: _59  and  _61
REMARK   25  A    between atoms: _61  and  _62
REMARK   26  A    between atoms: _61  and  _64
REMARK   27  A    between atoms: _64  and  _65
REMARK   28  A    between atoms: _70  and  _72
REMARK   29  A    between atoms: _72  and  _73
REMARK   30  A    between atoms: _72  and  _75
REMARK   31  A    between atoms: _75  and  _76
REMARK   32  A    between atoms: _79  and  _81
REMARK   33  A    between atoms: _81  and  _82
REMARK   34  A    between atoms: _81  and  _84
REMARK   35  A    between atoms: _84  and  _85
REMARK   36  A    between atoms: _90  and  _91
REMARK   37  A    between atoms: _93  and  _95
REMARK   38  A    between atoms: _95  and  _96
REMARK   39  A    between atoms: _95  and  _98
REMARK   40  A    between atoms: _98  and  _99
REMARK   41  A    between atoms: _104  and  _106
REMARK   42  A    between atoms: _106  and  _107
REMARK   43  A    between atoms: _106  and  _109
REMARK   44  A    between atoms: _109  and  _110
REMARK   45  A    between atoms: _113  and  _115
REMARK   46  A    between atoms: _115  and  _116
REMARK   47  A    between atoms: _115  and  _118
REMARK   48  A    between atoms: _118  and  _119
REMARK   49  A    between atoms: _122  and  _124
REMARK   50  A    between atoms: _124  and  _125
REMARK   51  A    between atoms: _124  and  _127
REMARK   52  A    between atoms: _127  and  _128
REMARK   53  A    between atoms: _131  and  _133
REMARK   54  A    between atoms: _133  and  _134
REMARK   55  A    between atoms: _133  and  _136
REMARK   56  A    between atoms: _136  and  _137
REMARK   57  A    between atoms: _139  and  _141
REMARK   58  A    between atoms: _141  and  _142
REMARK   59  A    between atoms: _144  and  _146
REMARK   60  A    between atoms: _146  and  _147
REMARK   61  A    between atoms: _149  and  _151
REMARK   62  A    between atoms: _151  and  _152
REMARK   63  A    between atoms: _151  and  _154
REMARK   64  A    between atoms: _154  and  _155
REMARK   65  A    between atoms: _160  and  _161
REMARK   66  A    between atoms: _163  and  _165
REMARK   67  A    between atoms: _165  and  _166
REMARK   68  A    between atoms: _165  and  _168
REMARK   69  A    between atoms: _168  and  _169
REMARK   70  A    between atoms: _169  and  _170
REMARK   71  A    between atoms: _175  and  _177
REMARK   72  A    between atoms: _177  and  _178
REMARK   73  A    between atoms: _177  and  _180
REMARK   74  A    between atoms: _183  and  _185
REMARK   75  A    between atoms: _185  and  _186
REMARK   76  A    between atoms: _185  and  _188
REMARK   77  A    between atoms: _188  and  _189
REMARK   78  A    between atoms: _189  and  _190
REMARK   79  A    between atoms: _192  and  _194
REMARK   80  A    between atoms: _194  and  _195
REMARK   81  A    between atoms: _194  and  _197
REMARK   82  A    between atoms: _197  and  _198
REMARK   83  A    between atoms: _200  and  _202
REMARK   84  A    between atoms: _202  and  _203
REMARK   85  A    between atoms: _202  and  _205
REMARK   86  A    between atoms: _205  and  _206
REMARK   87  A    between atoms: _209  and  _211
REMARK   88  A    between atoms: _211  and  _212
REMARK   89  A    between atoms: _211  and  _214
REMARK   90  A    between atoms: _214  and  _215
REMARK   91  A    between atoms: _215  and  _216
REMARK   92  A    between atoms: _221  and  _223
REMARK   93  A    between atoms: _223  and  _224
REMARK   94  A    between atoms: _223  and  _226
REMARK   95  A    between atoms: _226  and  _227
REMARK   96  A    between atoms: _227  and  _228
REMARK   97  A    between atoms: _230  and  _232
REMARK   98  A    between atoms: _232  and  _233
REMARK   99  A    between atoms: _236  and  _238
REMARK  100  A    between atoms: _238  and  _239
REMARK  101  A    between atoms: _238  and  _241
REMARK  102  A    between atoms: _241  and  _242
REMARK  103  A    between atoms: _248  and  _250
REMARK  104  A    between atoms: _250  and  _251
REMARK  105  A    between atoms: _250  and  _253
REMARK  106  A    between atoms: _253  and  _254
REMARK  107  A    between atoms: _257  and  _259
REMARK  108  A    between atoms: _259  and  _260
REMARK  109  A    between atoms: _259  and  _262
REMARK  110  A    between atoms: _262  and  _263
REMARK  111  A    between atoms: _263  and  _264
REMARK  112  A    between atoms: _267  and  _269
REMARK  113  A    between atoms: _269  and  _270
REMARK  114  A    between atoms: _269  and  _272
REMARK  115  A    between atoms: _274  and  _276
REMARK  116  A    between atoms: _276  and  _277
REMARK  117  A    between atoms: _276  and  _279
REMARK  118  A    between atoms: _279  and  _280
REMARK  119  A    between atoms: _283  and  _285
REMARK  120  A    between atoms: _285  and  _286
REMARK  121  A    between atoms: _285  and  _288
REMARK  122  A    between atoms: _288  and  _289
REMARK  123  A    between atoms: _291  and  _293
REMARK  124  A    between atoms: _293  and  _294
REMARK  125  A    between atoms: _293  and  _296
REMARK  126  A    between atoms: _296  and  _297
REMARK  127  A    between atoms: _300  and  _302
REMARK  128  A    between atoms: _302  and  _303
REMARK  129  A    between atoms: _302  and  _305
REMARK  130  A    between atoms: _305  and  _306
REMARK  131  A    between atoms: _306  and  _307
REMARK  132  A    between atoms: _312  and  _314
REMARK  133  A    between atoms: _314  and  _315
REMARK  134  A    between atoms: _314  and  _317
REMARK  135  A    between atoms: _317  and  _318
REMARK  136  A    between atoms: _318  and  _319
REMARK  137  A    between atoms: _324  and  _326
REMARK  138  A    between atoms: _326  and  _327
REMARK  139  A    between atoms: _329  and  _331
REMARK  140  A    between atoms: _331  and  _332
REMARK  141  A    between atoms: _331  and  _334
REMARK  142  A    between atoms: _334  and  _335
REMARK  143  A    between atoms: _337  and  _339
REMARK  144  A    between atoms: _339  and  _340
REMARK  145  A    between atoms: _339  and  _342
REMARK  146  A    between atoms: _342  and  _343
REMARK  147  A    between atoms: _343  and  _344
REMARK  148  A    between atoms: _344  and  _345
REMARK  149  A    between atoms: _354  and  _356
REMARK  150  A    between atoms: _356  and  _357
REMARK  151  A    between atoms: _360  and  _362
REMARK  152  A    between atoms: _362  and  _363
REMARK  153  A    between atoms: _362  and  _365
REMARK  154  A    between atoms: _368  and  _370
REMARK  155  A    between atoms: _370  and  _371
REMARK  156  A    between atoms: _373  and  _375
REMARK  157  A    between atoms: _375  and  _376
REMARK  158  A    between atoms: _378  and  _380
REMARK  159  A    between atoms: _380  and  _381
REMARK  160  A    between atoms: _380  and  _383
REMARK  161  A    between atoms: _383  and  _384
REMARK  162  A    between atoms: _387  and  _389
REMARK  163  A    between atoms: _389  and  _390
REMARK  164  A    between atoms: _393  and  _395
REMARK  165  A    between atoms: _395  and  _396
REMARK  166  A    between atoms: _395  and  _398
REMARK  167  A    between atoms: _401  and  _403
REMARK  168  A    between atoms: _403  and  _404
REMARK  169  A    between atoms: _406  and  _408
REMARK  170  A    between atoms: _408  and  _409
REMARK  171  A    between atoms: _408  and  _411
REMARK  172  A    between atoms: _411  and  _412
REMARK  173  A    between atoms: _412  and  _413
REMARK  174  A    between atoms: _416  and  _418
REMARK  175  A    between atoms: _418  and  _419
REMARK  176  A    between atoms: _418  and  _421
REMARK  177  A    between atoms: _421  and  _422
REMARK  178  A    between atoms: _427  and  _428
REMARK  179  A    between atoms: _430  and  _432
REMARK  180  A    between atoms: _432  and  _433
REMARK  181  A    between atoms: _432  and  _435
REMARK  182  A    between atoms: _435  and  _436
REMARK  183  A    between atoms: _439  and  _441
REMARK  184  A    between atoms: _441  and  _442
REMARK  185  A    between atoms: _441  and  _444
REMARK  186  A    between atoms: _444  and  _445
REMARK  187  A    between atoms: _445  and  _446
REMARK  188  A    between atoms: _448  and  _450
REMARK  189  A    between atoms: _450  and  _451
REMARK  190  A    between atoms: _453  and  _455
REMARK  191  A    between atoms: _455  and  _456
REMARK  192  A    between atoms: _455  and  _458
REMARK  193  A    between atoms: _461  and  _463
REMARK  194  A    between atoms: _463  and  _464
REMARK  195  A    between atoms: _466  and  _468
REMARK  196  A    between atoms: _468  and  _469
REMARK  197  A    between atoms: _468  and  _471
REMARK  198  A    between atoms: _471  and  _472
REMARK  199  A    between atoms: _478  and  _480
REMARK  200  A    between atoms: _480  and  _481
REMARK  201  A    between atoms: _480  and  _483
REMARK  202  A    between atoms: _483  and  _484
REMARK  203  A    between atoms: _487  and  _489
REMARK  204  A    between atoms: _489  and  _490
REMARK  205  A    between atoms: _489  and  _492
REMARK  206  A    between atoms: _494  and  _496
REMARK  207  A    between atoms: _496  and  _497
REMARK  208  A    between atoms: _496  and  _499
REMARK  209  A    between atoms: _502  and  _504
REMARK  210  A    between atoms: _504  and  _505
REMARK  211  A    between atoms: _504  and  _507
REMARK  212  A    between atoms: _507  and  _508
REMARK  213  A    between atoms: _511  and  _513
REMARK  214  A    between atoms: _513  and  _514
REMARK  215  A    between atoms: _513  and  _516
REMARK  216  A    between atoms: _516  and  _517
REMARK  217  A    between atoms: _517  and  _518
REMARK  218  A    between atoms: _518  and  _519
REMARK                            x       y       z     vdW  Elec       q    Type
REMARK                         _______ _______ _______ _____ _____    ______ ____
ROOT
ATOM      1  O   HOH     1      12.537  16.741  81.759  0.00  0.00    +0.000 OA
ENDROOT
TORSDOF 0
REMARK  Name = ../refined-set-2016/4leq/4leq_pocket.pdb
REMARK  218 active torsions:
REMARK  status: ('A' for Active; 'I' for Inactive)
REMARK    1  A    between atoms: _1  and  _3
REMARK    2  A    between atoms: _3  and  _4
REMARK    3  A    between atoms: _3  and  _6
REMARK    4  A    between atoms: _6  and  _7
REMARK    5  A    between atoms: _7  and  _8
REMARK    6  A    between atoms: _11  and  _12
REMARK    7  A    between atoms: _17  and  _19
REMARK    8  A    between atoms: _19  and  _20
REMARK    9  A    between atoms: _19  and  _22
REMARK   10  A    between atoms: _25  and  _27
REMARK   11  A    between atoms: _27  and  _28
REMARK   12  A    between atoms: _30  and  _32
REMARK   13  A    between atoms: _32  and  _33
REMARK   14  A    between atoms: _32  and  _35
REMARK   15  A    between atoms: _35  and  _36
REMARK   16  A    between atoms: _39  and  _41
REMARK   17  A    between atoms: _41  and  _42
REMARK   18  A    between atoms: _45  and  _47
REMARK   19  A    between atoms: _47  and  _48
REMARK   20  A    between atoms: _47  and  _50
REMARK   21  A    between atoms: _50  and  _51
REMARK   22  A    between atoms: _54  and  _56
REMARK   23  A    between atoms: _56  and  _57
REMARK   24  A    between atoms: _59  and  _61
REMARK   25  A    between atoms: _61  and  _62
REMARK   26  A    between atoms: _61  and  _64
REMARK   27  A    between atoms: _64  and  _65
REMARK   28  A    between atoms: _70  and  _72
REMARK   29  A    between atoms: _72  and  _73
REMARK   30  A    between atoms: _72  and  _75
REMARK   31  A    between atoms: _75  and  _76
REMARK   32  A    between atoms: _79  and  _81
REMARK   33  A    between atoms: _81  and  _82
REMARK   34  A    between atoms: _81  and  _84
REMARK   35  A    between atoms: _84  and  _85
REMARK   36  A    between atoms: _90  and  _91
REMARK   37  A    between atoms: _93  and  _95
REMARK   38  A    between atoms: _95  and  _96
REMARK   39  A    between atoms: _95  and  _98
REMARK   40  A    between atoms: _98  and  _99
REMARK   41  A    between atoms: _104  and  _106
REMARK   42  A    between atoms: _106  and  _107
REMARK   43  A    between atoms: _106  and  _109
REMARK   44  A    between atoms: _109  and  _110
REMARK   45  A    between atoms: _113  and  _115
REMARK   46  A    between atoms: _115  and  _116
REMARK   47  A    between atoms: _115  and  _118
REMARK   48  A    between atoms: _118  and  _119
REMARK   49  A    between atoms: _122  and  _124
REMARK   50  A    between atoms: _124  and  _125
REMARK   51  A    between atoms: _124  and  _127
REMARK   52  A    between atoms: _127  and  _128
REMARK   53  A    between atoms: _131  and  _133
REMARK   54  A    between atoms: _133  and  _134
REMARK   55  A    between atoms: _133  and  _136
REMARK   56  A    between atoms: _136  and  _137
REMARK   57  A    between atoms: _139  and  _141
REMARK   58  A    between atoms: _141  and  _142
REMARK   59  A    between atoms: _144  and  _146
REMARK   60  A    between atoms: _146  and  _147
REMARK   61  A    between atoms: _149  and  _151
REMARK   62  A    between atoms: _151  and  _152
REMARK   63  A    between atoms: _151  and  _154
REMARK   64  A    between atoms: _154  and  _155
REMARK   65  A    between atoms: _160  and  _161
REMARK   66  A    between atoms: _163  and  _165
REMARK   67  A    between atoms: _165  and  _166
REMARK   68  A    between atoms: _165  and  _168
REMARK   69  A    between atoms: _168  and  _169
REMARK   70  A    between atoms: _169  and  _170
REMARK   71  A    between atoms: _175  and  _177
REMARK   72  A    between atoms: _177  and  _178
REMARK   73  A    between atoms: _177  and  _180
REMARK   74  A    between atoms: _183  and  _185
REMARK   75  A    between atoms: _185  and  _186
REMARK   76  A    between atoms: _185  and  _188
REMARK   77  A    between atoms: _188  and  _189
REMARK   78  A    between atoms: _189  and  _190
REMARK   79  A    between atoms: _192  and  _194
REMARK   80  A    between atoms: _194  and  _195
REMARK   81  A    between atoms: _194  and  _197
REMARK   82  A    between atoms: _197  and  _198
REMARK   83  A    between atoms: _200  and  _202
REMARK   84  A    between atoms: _202  and  _203
REMARK   85  A    between atoms: _202  and  _205
REMARK   86  A    between atoms: _205  and  _206
REMARK   87  A    between atoms: _209  and  _211
REMARK   88  A    between atoms: _211  and  _212
REMARK   89  A    between atoms: _211  and  _214
REMARK   90  A    between atoms: _214  and  _215
REMARK   91  A    between atoms: _215  and  _216
REMARK   92  A    between atoms: _221  and  _223
REMARK   93  A    between atoms: _223  and  _224
REMARK   94  A    between atoms: _223  and  _226
REMARK   95  A    between atoms: _226  and  _227
REMARK   96  A    between atoms: _227  and  _228
REMARK   97  A    between atoms: _230  and  _232
REMARK   98  A    between atoms: _232  and  _233
REMARK   99  A    between atoms: _236  and  _238
REMARK  100  A    between atoms: _238  and  _239
REMARK  101  A    between atoms: _238  and  _241
REMARK  102  A    between atoms: _241  and  _242
REMARK  103  A    between atoms: _248  and  _250
REMARK  104  A    between atoms: _250  and  _251
REMARK  105  A    between atoms: _250  and  _253
REMARK  106  A    between atoms: _253  and  _254
REMARK  107  A    between atoms: _257  and  _259
REMARK  108  A    between atoms: _259  and  _260
REMARK  109  A    between atoms: _259  and  _262
REMARK  110  A    between atoms: _262  and  _263
REMARK  111  A    between atoms: _263  and  _264
REMARK  112  A    between atoms: _267  and  _269
REMARK  113  A    between atoms: _269  and  _270
REMARK  114  A    between atoms: _269  and  _272
REMARK  115  A    between atoms: _274  and  _276
REMARK  116  A    between atoms: _276  and  _277
REMARK  117  A    between atoms: _276  and  _279
REMARK  118  A    between atoms: _279  and  _280
REMARK  119  A    between atoms: _283  and  _285
REMARK  120  A    between atoms: _285  and  _286
REMARK  121  A    between atoms: _285  and  _288
REMARK  122  A    between atoms: _288  and  _289
REMARK  123  A    between atoms: _291  and  _293
REMARK  124  A    between atoms: _293  and  _294
REMARK  125  A    between atoms: _293  and  _296
REMARK  126  A    between atoms: _296  and  _297
REMARK  127  A    between atoms: _300  and  _302
REMARK  128  A    between atoms: _302  and  _303
REMARK  129  A    between atoms: _302  and  _305
REMARK  130  A    between atoms: _305  and  _306
REMARK  131  A    between atoms: _306  and  _307
REMARK  132  A    between atoms: _312  and  _314
REMARK  133  A    between atoms: _314  and  _315
REMARK  134  A    between atoms: _314  and  _317
REMARK  135  A    between atoms: _317  and  _318
REMARK  136  A    between atoms: _318  and  _319
REMARK  137  A    between atoms: _324  and  _326
REMARK  138  A    between atoms: _326  and  _327
REMARK  139  A    between atoms: _329  and  _331
REMARK  140  A    between atoms: _331  and  _332
REMARK  141  A    between atoms: _331  and  _334
REMARK  142  A    between atoms: _334  and  _335
REMARK  143  A    between atoms: _337  and  _339
REMARK  144  A    between atoms: _339  and  _340
REMARK  145  A    between atoms: _339  and  _342
REMARK  146  A    between atoms: _342  and  _343
REMARK  147  A    between atoms: _343  and  _344
REMARK  148  A    between atoms: _344  and  _345
REMARK  149  A    between atoms: _354  and  _356
REMARK  150  A    between atoms: _356  and  _357
REMARK  151  A    between atoms: _360  and  _362
REMARK  152  A    between atoms: _362  and  _363
REMARK  153  A    between atoms: _362  and  _365
REMARK  154  A    between atoms: _368  and  _370
REMARK  155  A    between atoms: _370  and  _371
REMARK  156  A    between atoms: _373  and  _375
REMARK  157  A    between atoms: _375  and  _376
REMARK  158  A    between atoms: _378  and  _380
REMARK  159  A    between atoms: _380  and  _381
REMARK  160  A    between atoms: _380  and  _383
REMARK  161  A    between atoms: _383  and  _384
REMARK  162  A    between atoms: _387  and  _389
REMARK  163  A    between atoms: _389  and  _390
REMARK  164  A    between atoms: _393  and  _395
REMARK  165  A    between atoms: _395  and  _396
REMARK  166  A    between atoms: _395  and  _398
REMARK  167  A    between atoms: _401  and  _403
REMARK  168  A    between atoms: _403  and  _404
REMARK  169  A    between atoms: _406  and  _408
REMARK  170  A    between atoms: _408  and  _409
REMARK  171  A    between atoms: _408  and  _411
REMARK  172  A    between atoms: _411  and  _412
REMARK  173  A    between atoms: _412  and  _413
REMARK  174  A    between atoms: _416  and  _418
REMARK  175  A    between atoms: _418  and  _419
REMARK  176  A    between atoms: _418  and  _421
REMARK  177  A    between atoms: _421  and  _422
REMARK  178  A    between atoms: _427  and  _428
REMARK  179  A    between atoms: _430  and  _432
REMARK  180  A    between atoms: _432  and  _433
REMARK  181  A    between atoms: _432  and  _435
REMARK  182  A    between atoms: _435  and  _436
REMARK  183  A    between atoms: _439  and  _441
REMARK  184  A    between atoms: _441  and  _442
REMARK  185  A    between atoms: _441  and  _444
REMARK  186  A    between atoms: _444  and  _445
REMARK  187  A    between atoms: _445  and  _446
REMARK  188  A    between atoms: _448  and  _450
REMARK  189  A    between atoms: _450  and  _451
REMARK  190  A    between atoms: _453  and  _455
REMARK  191  A    between atoms: _455  and  _456
REMARK  192  A    between atoms: _455  and  _458
REMARK  193  A    between atoms: _461  and  _463
REMARK  194  A    between atoms: _463  and  _464
REMARK  195  A    between atoms: _466  and  _468
REMARK  196  A    between atoms: _468  and  _469
REMARK  197  A    between atoms: _468  and  _471
REMARK  198  A    between atoms: _471  and  _472
REMARK  199  A    between atoms: _478  and  _480
REMARK  200  A    between atoms: _480  and  _481
REMARK  201  A    between atoms: _480  and  _483
REMARK  202  A    between atoms: _483  and  _484
REMARK  203  A    between atoms: _487  and  _489
REMARK  204  A    between atoms: _489  and  _490
REMARK  205  A    between atoms: _489  and  _492
REMARK  206  A    between atoms: _494  and  _496
REMARK  207  A    between atoms: _496  and  _497
REMARK  208  A    between atoms: _496  and  _499
REMARK  209  A    between atoms: _502  and  _504
REMARK  210  A    between atoms: _504  and  _505
REMARK  211  A    between atoms: _504  and  _507
REMARK  212  A    between atoms: _507  and  _508
REMARK  213  A    between atoms: _511  and  _513
REMARK  214  A    between atoms: _513  and  _514
REMARK  215  A    between atoms: _513  and  _516
REMARK  216  A    between atoms: _516  and  _517
REMARK  217  A    between atoms: _517  and  _518
REMARK  218  A    between atoms: _518  and  _519
REMARK                            x       y       z     vdW  Elec       q    Type
REMARK                         _______ _______ _______ _____ _____    ______ ____
ROOT
ATOM      1  O   HOH     1       3.040  22.754  86.711  0.00  0.00    +0.000 OA
ENDROOT
TORSDOF 0
REMARK  Name = ../refined-set-2016/4leq/4leq_pocket.pdb
REMARK  218 active torsions:
REMARK  status: ('A' for Active; 'I' for Inactive)
REMARK    1  A    between atoms: _1  and  _3
REMARK    2  A    between atoms: _3  and  _4
REMARK    3  A    between atoms: _3  and  _6
REMARK    4  A    between atoms: _6  and  _7
REMARK    5  A    between atoms: _7  and  _8
REMARK    6  A    between atoms: _11  and  _12
REMARK    7  A    between atoms: _17  and  _19
REMARK    8  A    between atoms: _19  and  _20
REMARK    9  A    between atoms: _19  and  _22
REMARK   10  A    between atoms: _25  and  _27
REMARK   11  A    between atoms: _27  and  _28
REMARK   12  A    between atoms: _30  and  _32
REMARK   13  A    between atoms: _32  and  _33
REMARK   14  A    between atoms: _32  and  _35
REMARK   15  A    between atoms: _35  and  _36
REMARK   16  A    between atoms: _39  and  _41
REMARK   17  A    between atoms: _41  and  _42
REMARK   18  A    between atoms: _45  and  _47
REMARK   19  A    between atoms: _47  and  _48
REMARK   20  A    between atoms: _47  and  _50
REMARK   21  A    between atoms: _50  and  _51
REMARK   22  A    between atoms: _54  and  _56
REMARK   23  A    between atoms: _56  and  _57
REMARK   24  A    between atoms: _59  and  _61
REMARK   25  A    between atoms: _61  and  _62
REMARK   26  A    between atoms: _61  and  _64
REMARK   27  A    between atoms: _64  and  _65
REMARK   28  A    between atoms: _70  and  _72
REMARK   29  A    between atoms: _72  and  _73
REMARK   30  A    between atoms: _72  and  _75
REMARK   31  A    between atoms: _75  and  _76
REMARK   32  A    between atoms: _79  and  _81
REMARK   33  A    between atoms: _81  and  _82
REMARK   34  A    between atoms: _81  and  _84
REMARK   35  A    between atoms: _84  and  _85
REMARK   36  A    between atoms: _90  and  _91
REMARK   37  A    between atoms: _93  and  _95
REMARK   38  A    between atoms: _95  and  _96
REMARK   39  A    between atoms: _95  and  _98
REMARK   40  A    between atoms: _98  and  _99
REMARK   41  A    between atoms: _104  and  _106
REMARK   42  A    between atoms: _106  and  _107
REMARK   43  A    between atoms: _106  and  _109
REMARK   44  A    between atoms: _109  and  _110
REMARK   45  A    between atoms: _113  and  _115
REMARK   46  A    between atoms: _115  and  _116
REMARK   47  A    between atoms: _115  and  _118
REMARK   48  A    between atoms: _118  and  _119
REMARK   49  A    between atoms: _122  and  _124
REMARK   50  A    between atoms: _124  and  _125
REMARK   51  A    between atoms: _124  and  _127
REMARK   52  A    between atoms: _127  and  _128
REMARK   53  A    between atoms: _131  and  _133
REMARK   54  A    between atoms: _133  and  _134
REMARK   55  A    between atoms: _133  and  _136
REMARK   56  A    between atoms: _136  and  _137
REMARK   57  A    between atoms: _139  and  _141
REMARK   58  A    between atoms: _141  and  _142
REMARK   59  A    between atoms: _144  and  _146
REMARK   60  A    between atoms: _146  and  _147
REMARK   61  A    between atoms: _149  and  _151
REMARK   62  A    between atoms: _151  and  _152
REMARK   63  A    between atoms: _151  and  _154
REMARK   64  A    between atoms: _154  and  _155
REMARK   65  A    between atoms: _160  and  _161
REMARK   66  A    between atoms: _163  and  _165
REMARK   67  A    between atoms: _165  and  _166
REMARK   68  A    between atoms: _165  and  _168
REMARK   69  A    between atoms: _168  and  _169
REMARK   70  A    between atoms: _169  and  _170
REMARK   71  A    between atoms: _175  and  _177
REMARK   72  A    between atoms: _177  and  _178
REMARK   73  A    between atoms: _177  and  _180
REMARK   74  A    between atoms: _183  and  _185
REMARK   75  A    between atoms: _185  and  _186
REMARK   76  A    between atoms: _185  and  _188
REMARK   77  A    between atoms: _188  and  _189
REMARK   78  A    between atoms: _189  and  _190
REMARK   79  A    between atoms: _192  and  _194
REMARK   80  A    between atoms: _194  and  _195
REMARK   81  A    between atoms: _194  and  _197
REMARK   82  A    between atoms: _197  and  _198
REMARK   83  A    between atoms: _200  and  _202
REMARK   84  A    between atoms: _202  and  _203
REMARK   85  A    between atoms: _202  and  _205
REMARK   86  A    between atoms: _205  and  _206
REMARK   87  A    between atoms: _209  and  _211
REMARK   88  A    between atoms: _211  and  _212
REMARK   89  A    between atoms: _211  and  _214
REMARK   90  A    between atoms: _214  and  _215
REMARK   91  A    between atoms: _215  and  _216
REMARK   92  A    between atoms: _221  and  _223
REMARK   93  A    between atoms: _223  and  _224
REMARK   94  A    between atoms: _223  and  _226
REMARK   95  A    between atoms: _226  and  _227
REMARK   96  A    between atoms: _227  and  _228
REMARK   97  A    between atoms: _230  and  _232
REMARK   98  A    between atoms: _232  and  _233
REMARK   99  A    between atoms: _236  and  _238
REMARK  100  A    between atoms: _238  and  _239
REMARK  101  A    between atoms: _238  and  _241
REMARK  102  A    between atoms: _241  and  _242
REMARK  103  A    between atoms: _248  and  _250
REMARK  104  A    between atoms: _250  and  _251
REMARK  105  A    between atoms: _250  and  _253
REMARK  106  A    between atoms: _253  and  _254
REMARK  107  A    between atoms: _257  and  _259
REMARK  108  A    between atoms: _259  and  _260
REMARK  109  A    between atoms: _259  and  _262
REMARK  110  A    between atoms: _262  and  _263
REMARK  111  A    between atoms: _263  and  _264
REMARK  112  A    between atoms: _267  and  _269
REMARK  113  A    between atoms: _269  and  _270
REMARK  114  A    between atoms: _269  and  _272
REMARK  115  A    between atoms: _274  and  _276
REMARK  116  A    between atoms: _276  and  _277
REMARK  117  A    between atoms: _276  and  _279
REMARK  118  A    between atoms: _279  and  _280
REMARK  119  A    between atoms: _283  and  _285
REMARK  120  A    between atoms: _285  and  _286
REMARK  121  A    between atoms: _285  and  _288
REMARK  122  A    between atoms: _288  and  _289
REMARK  123  A    between atoms: _291  and  _293
REMARK  124  A    between atoms: _293  and  _294
REMARK  125  A    between atoms: _293  and  _296
REMARK  126  A    between atoms: _296  and  _297
REMARK  127  A    between atoms: _300  and  _302
REMARK  128  A    between atoms: _302  and  _303
REMARK  129  A    between atoms: _302  and  _305
REMARK  130  A    between atoms: _305  and  _306
REMARK  131  A    between atoms: _306  and  _307
REMARK  132  A    between atoms: _312  and  _314
REMARK  133  A    between atoms: _314  and  _315
REMARK  134  A    between atoms: _314  and  _317
REMARK  135  A    between atoms: _317  and  _318
REMARK  136  A    between atoms: _318  and  _319
REMARK  137  A    between atoms: _324  and  _326
REMARK  138  A    between atoms: _326  and  _327
REMARK  139  A    between atoms: _329  and  _331
REMARK  140  A    between atoms: _331  and  _332
REMARK  141  A    between atoms: _331  and  _334
REMARK  142  A    between atoms: _334  and  _335
REMARK  143  A    between atoms: _337  and  _339
REMARK  144  A    between atoms: _339  and  _340
REMARK  145  A    between atoms: _339  and  _342
REMARK  146  A    between atoms: _342  and  _343
REMARK  147  A    between atoms: _343  and  _344
REMARK  148  A    between atoms: _344  and  _345
REMARK  149  A    between atoms: _354  and  _356
REMARK  150  A    between atoms: _356  and  _357
REMARK  151  A    between atoms: _360  and  _362
REMARK  152  A    between atoms: _362  and  _363
REMARK  153  A    between atoms: _362  and  _365
REMARK  154  A    between atoms: _368  and  _370
REMARK  155  A    between atoms: _370  and  _371
REMARK  156  A    between atoms: _373  and  _375
REMARK  157  A    between atoms: _375  and  _376
REMARK  158  A    between atoms: _378  and  _380
REMARK  159  A    between atoms: _380  and  _381
REMARK  160  A    between atoms: _380  and  _383
REMARK  161  A    between atoms: _383  and  _384
REMARK  162  A    between atoms: _387  and  _389
REMARK  163  A    between atoms: _389  and  _390
REMARK  164  A    between atoms: _393  and  _395
REMARK  165  A    between atoms: _395  and  _396
REMARK  166  A    between atoms: _395  and  _398
REMARK  167  A    between atoms: _401  and  _403
REMARK  168  A    between atoms: _403  and  _404
REMARK  169  A    between atoms: _406  and  _408
REMARK  170  A    between atoms: _408  and  _409
REMARK  171  A    between atoms: _408  and  _411
REMARK  172  A    between atoms: _411  and  _412
REMARK  173  A    between atoms: _412  and  _413
REMARK  174  A    between atoms: _416  and  _418
REMARK  175  A    between atoms: _418  and  _419
REMARK  176  A    between atoms: _418  and  _421
REMARK  177  A    between atoms: _421  and  _422
REMARK  178  A    between atoms: _427  and  _428
REMARK  179  A    between atoms: _430  and  _432
REMARK  180  A    between atoms: _432  and  _433
REMARK  181  A    between atoms: _432  and  _435
REMARK  182  A    between atoms: _435  and  _436
REMARK  183  A    between atoms: _439  and  _441
REMARK  184  A    between atoms: _441  and  _442
REMARK  185  A    between atoms: _441  and  _444
REMARK  186  A    between atoms: _444  and  _445
REMARK  187  A    between atoms: _445  and  _446
REMARK  188  A    between atoms: _448  and  _450
REMARK  189  A    between atoms: _450  and  _451
REMARK  190  A    between atoms: _453  and  _455
REMARK  191  A    between atoms: _455  and  _456
REMARK  192  A    between atoms: _455  and  _458
REMARK  193  A    between atoms: _461  and  _463
REMARK  194  A    between atoms: _463  and  _464
REMARK  195  A    between atoms: _466  and  _468
REMARK  196  A    between atoms: _468  and  _469
REMARK  197  A    between atoms: _468  and  _471
REMARK  198  A    between atoms: _471  and  _472
REMARK  199  A    between atoms: _478  and  _480
REMARK  200  A    between atoms: _480  and  _481
REMARK  201  A    between atoms: _480  and  _483
REMARK  202  A    between atoms: _483  and  _484
REMARK  203  A    between atoms: _487  and  _489
REMARK  204  A    between atoms: _489  and  _490
REMARK  205  A    between atoms: _489  and  _492
REMARK  206  A    between atoms: _494  and  _496
REMARK  207  A    between atoms: _496  and  _497
REMARK  208  A    between atoms: _496  and  _499
REMARK  209  A    between atoms: _502  and  _504
REMARK  210  A    between atoms: _504  and  _505
REMARK  211  A    between atoms: _504  and  _507
REMARK  212  A    between atoms: _507  and  _508
REMARK  213  A    between atoms: _511  and  _513
REMARK  214  A    between atoms: _513  and  _514
REMARK  215  A    between atoms: _513  and  _516
REMARK  216  A    between atoms: _516  and  _517
REMARK  217  A    between atoms: _517  and  _518
REMARK  218  A    between atoms: _518  and  _519
REMARK                            x       y       z     vdW  Elec       q    Type
REMARK                         _______ _______ _______ _____ _____    ______ ____
ROOT
ATOM      1  O   HOH     1       9.255  17.813  81.260  0.00  0.00    +0.000 OA
ENDROOT
TORSDOF 0
REMARK  Name = ../refined-set-2016/4leq/4leq_pocket.pdb
REMARK  218 active torsions:
REMARK  status: ('A' for Active; 'I' for Inactive)
REMARK    1  A    between atoms: _1  and  _3
REMARK    2  A    between atoms: _3  and  _4
REMARK    3  A    between atoms: _3  and  _6
REMARK    4  A    between atoms: _6  and  _7
REMARK    5  A    between atoms: _7  and  _8
REMARK    6  A    between atoms: _11  and  _12
REMARK    7  A    between atoms: _17  and  _19
REMARK    8  A    between atoms: _19  and  _20
REMARK    9  A    between atoms: _19  and  _22
REMARK   10  A    between atoms: _25  and  _27
REMARK   11  A    between atoms: _27  and  _28
REMARK   12  A    between atoms: _30  and  _32
REMARK   13  A    between atoms: _32  and  _33
REMARK   14  A    between atoms: _32  and  _35
REMARK   15  A    between atoms: _35  and  _36
REMARK   16  A    between atoms: _39  and  _41
REMARK   17  A    between atoms: _41  and  _42
REMARK   18  A    between atoms: _45  and  _47
REMARK   19  A    between atoms: _47  and  _48
REMARK   20  A    between atoms: _47  and  _50
REMARK   21  A    between atoms: _50  and  _51
REMARK   22  A    between atoms: _54  and  _56
REMARK   23  A    between atoms: _56  and  _57
REMARK   24  A    between atoms: _59  and  _61
REMARK   25  A    between atoms: _61  and  _62
REMARK   26  A    between atoms: _61  and  _64
REMARK   27  A    between atoms: _64  and  _65
REMARK   28  A    between atoms: _70  and  _72
REMARK   29  A    between atoms: _72  and  _73
REMARK   30  A    between atoms: _72  and  _75
REMARK   31  A    between atoms: _75  and  _76
REMARK   32  A    between atoms: _79  and  _81
REMARK   33  A    between atoms: _81  and  _82
REMARK   34  A    between atoms: _81  and  _84
REMARK   35  A    between atoms: _84  and  _85
REMARK   36  A    between atoms: _90  and  _91
REMARK   37  A    between atoms: _93  and  _95
REMARK   38  A    between atoms: _95  and  _96
REMARK   39  A    between atoms: _95  and  _98
REMARK   40  A    between atoms: _98  and  _99
REMARK   41  A    between atoms: _104  and  _106
REMARK   42  A    between atoms: _106  and  _107
REMARK   43  A    between atoms: _106  and  _109
REMARK   44  A    between atoms: _109  and  _110
REMARK   45  A    between atoms: _113  and  _115
REMARK   46  A    between atoms: _115  and  _116
REMARK   47  A    between atoms: _115  and  _118
REMARK   48  A    between atoms: _118  and  _119
REMARK   49  A    between atoms: _122  and  _124
REMARK   50  A    between atoms: _124  and  _125
REMARK   51  A    between atoms: _124  and  _127
REMARK   52  A    between atoms: _127  and  _128
REMARK   53  A    between atoms: _131  and  _133
REMARK   54  A    between atoms: _133  and  _134
REMARK   55  A    between atoms: _133  and  _136
REMARK   56  A    between atoms: _136  and  _137
REMARK   57  A    between atoms: _139  and  _141
REMARK   58  A    between atoms: _141  and  _142
REMARK   59  A    between atoms: _144  and  _146
REMARK   60  A    between atoms: _146  and  _147
REMARK   61  A    between atoms: _149  and  _151
REMARK   62  A    between atoms: _151  and  _152
REMARK   63  A    between atoms: _151  and  _154
REMARK   64  A    between atoms: _154  and  _155
REMARK   65  A    between atoms: _160  and  _161
REMARK   66  A    between atoms: _163  and  _165
REMARK   67  A    between atoms: _165  and  _166
REMARK   68  A    between atoms: _165  and  _168
REMARK   69  A    between atoms: _168  and  _169
REMARK   70  A    between atoms: _169  and  _170
REMARK   71  A    between atoms: _175  and  _177
REMARK   72  A    between atoms: _177  and  _178
REMARK   73  A    between atoms: _177  and  _180
REMARK   74  A    between atoms: _183  and  _185
REMARK   75  A    between atoms: _185  and  _186
REMARK   76  A    between atoms: _185  and  _188
REMARK   77  A    between atoms: _188  and  _189
REMARK   78  A    between atoms: _189  and  _190
REMARK   79  A    between atoms: _192  and  _194
REMARK   80  A    between atoms: _194  and  _195
REMARK   81  A    between atoms: _194  and  _197
REMARK   82  A    between atoms: _197  and  _198
REMARK   83  A    between atoms: _200  and  _202
REMARK   84  A    between atoms: _202  and  _203
REMARK   85  A    between atoms: _202  and  _205
REMARK   86  A    between atoms: _205  and  _206
REMARK   87  A    between atoms: _209  and  _211
REMARK   88  A    between atoms: _211  and  _212
REMARK   89  A    between atoms: _211  and  _214
REMARK   90  A    between atoms: _214  and  _215
REMARK   91  A    between atoms: _215  and  _216
REMARK   92  A    between atoms: _221  and  _223
REMARK   93  A    between atoms: _223  and  _224
REMARK   94  A    between atoms: _223  and  _226
REMARK   95  A    between atoms: _226  and  _227
REMARK   96  A    between atoms: _227  and  _228
REMARK   97  A    between atoms: _230  and  _232
REMARK   98  A    between atoms: _232  and  _233
REMARK   99  A    between atoms: _236  and  _238
REMARK  100  A    between atoms: _238  and  _239
REMARK  101  A    between atoms: _238  and  _241
REMARK  102  A    between atoms: _241  and  _242
REMARK  103  A    between atoms: _248  and  _250
REMARK  104  A    between atoms: _250  and  _251
REMARK  105  A    between atoms: _250  and  _253
REMARK  106  A    between atoms: _253  and  _254
REMARK  107  A    between atoms: _257  and  _259
REMARK  108  A    between atoms: _259  and  _260
REMARK  109  A    between atoms: _259  and  _262
REMARK  110  A    between atoms: _262  and  _263
REMARK  111  A    between atoms: _263  and  _264
REMARK  112  A    between atoms: _267  and  _269
REMARK  113  A    between atoms: _269  and  _270
REMARK  114  A    between atoms: _269  and  _272
REMARK  115  A    between atoms: _274  and  _276
REMARK  116  A    between atoms: _276  and  _277
REMARK  117  A    between atoms: _276  and  _279
REMARK  118  A    between atoms: _279  and  _280
REMARK  119  A    between atoms: _283  and  _285
REMARK  120  A    between atoms: _285  and  _286
REMARK  121  A    between atoms: _285  and  _288
REMARK  122  A    between atoms: _288  and  _289
REMARK  123  A    between atoms: _291  and  _293
REMARK  124  A    between atoms: _293  and  _294
REMARK  125  A    between atoms: _293  and  _296
REMARK  126  A    between atoms: _296  and  _297
REMARK  127  A    between atoms: _300  and  _302
REMARK  128  A    between atoms: _302  and  _303
REMARK  129  A    between atoms: _302  and  _305
REMARK  130  A    between atoms: _305  and  _306
REMARK  131  A    between atoms: _306  and  _307
REMARK  132  A    between atoms: _312  and  _314
REMARK  133  A    between atoms: _314  and  _315
REMARK  134  A    between atoms: _314  and  _317
REMARK  135  A    between atoms: _317  and  _318
REMARK  136  A    between atoms: _318  and  _319
REMARK  137  A    between atoms: _324  and  _326
REMARK  138  A    between atoms: _326  and  _327
REMARK  139  A    between atoms: _329  and  _331
REMARK  140  A    between atoms: _331  and  _332
REMARK  141  A    between atoms: _331  and  _334
REMARK  142  A    between atoms: _334  and  _335
REMARK  143  A    between atoms: _337  and  _339
REMARK  144  A    between atoms: _339  and  _340
REMARK  145  A    between atoms: _339  and  _342
REMARK  146  A    between atoms: _342  and  _343
REMARK  147  A    between atoms: _343  and  _344
REMARK  148  A    between atoms: _344  and  _345
REMARK  149  A    between atoms: _354  and  _356
REMARK  150  A    between atoms: _356  and  _357
REMARK  151  A    between atoms: _360  and  _362
REMARK  152  A    between atoms: _362  and  _363
REMARK  153  A    between atoms: _362  and  _365
REMARK  154  A    between atoms: _368  and  _370
REMARK  155  A    between atoms: _370  and  _371
REMARK  156  A    between atoms: _373  and  _375
REMARK  157  A    between atoms: _375  and  _376
REMARK  158  A    between atoms: _378  and  _380
REMARK  159  A    between atoms: _380  and  _381
REMARK  160  A    between atoms: _380  and  _383
REMARK  161  A    between atoms: _383  and  _384
REMARK  162  A    between atoms: _387  and  _389
REMARK  163  A    between atoms: _389  and  _390
REMARK  164  A    between atoms: _393  and  _395
REMARK  165  A    between atoms: _395  and  _396
REMARK  166  A    between atoms: _395  and  _398
REMARK  167  A    between atoms: _401  and  _403
REMARK  168  A    between atoms: _403  and  _404
REMARK  169  A    between atoms: _406  and  _408
REMARK  170  A    between atoms: _408  and  _409
REMARK  171  A    between atoms: _408  and  _411
REMARK  172  A    between atoms: _411  and  _412
REMARK  173  A    between atoms: _412  and  _413
REMARK  174  A    between atoms: _416  and  _418
REMARK  175  A    between atoms: _418  and  _419
REMARK  176  A    between atoms: _418  and  _421
REMARK  177  A    between atoms: _421  and  _422
REMARK  178  A    between atoms: _427  and  _428
REMARK  179  A    between atoms: _430  and  _432
REMARK  180  A    between atoms: _432  and  _433
REMARK  181  A    between atoms: _432  and  _435
REMARK  182  A    between atoms: _435  and  _436
REMARK  183  A    between atoms: _439  and  _441
REMARK  184  A    between atoms: _441  and  _442
REMARK  185  A    between atoms: _441  and  _444
REMARK  186  A    between atoms: _444  and  _445
REMARK  187  A    between atoms: _445  and  _446
REMARK  188  A    between atoms: _448  and  _450
REMARK  189  A    between atoms: _450  and  _451
REMARK  190  A    between atoms: _453  and  _455
REMARK  191  A    between atoms: _455  and  _456
REMARK  192  A    between atoms: _455  and  _458
REMARK  193  A    between atoms: _461  and  _463
REMARK  194  A    between atoms: _463  and  _464
REMARK  195  A    between atoms: _466  and  _468
REMARK  196  A    between atoms: _468  and  _469
REMARK  197  A    between atoms: _468  and  _471
REMARK  198  A    between atoms: _471  and  _472
REMARK  199  A    between atoms: _478  and  _480
REMARK  200  A    between atoms: _480  and  _481
REMARK  201  A    between atoms: _480  and  _483
REMARK  202  A    between atoms: _483  and  _484
REMARK  203  A    between atoms: _487  and  _489
REMARK  204  A    between atoms: _489  and  _490
REMARK  205  A    between atoms: _489  and  _492
REMARK  206  A    between atoms: _494  and  _496
REMARK  207  A    between atoms: _496  and  _497
REMARK  208  A    between atoms: _496  and  _499
REMARK  209  A    between atoms: _502  and  _504
REMARK  210  A    between atoms: _504  and  _505
REMARK  211  A    between atoms: _504  and  _507
REMARK  212  A    between atoms: _507  and  _508
REMARK  213  A    between atoms: _511  and  _513
REMARK  214  A    between atoms: _513  and  _514
REMARK  215  A    between atoms: _513  and  _516
REMARK  216  A    between atoms: _516  and  _517
REMARK  217  A    between atoms: _517  and  _518
REMARK  218  A    between atoms: _518  and  _519
REMARK                            x       y       z     vdW  Elec       q    Type
REMARK                         _______ _______ _______ _____ _____    ______ ____
ROOT
ATOM      1  O   HOH     1       0.145  17.028  81.327  0.00  0.00    +0.000 OA
ENDROOT
TORSDOF 0
REMARK  Name = ../refined-set-2016/4leq/4leq_pocket.pdb
REMARK  218 active torsions:
REMARK  status: ('A' for Active; 'I' for Inactive)
REMARK    1  A    between atoms: _1  and  _3
REMARK    2  A    between atoms: _3  and  _4
REMARK    3  A    between atoms: _3  and  _6
REMARK    4  A    between atoms: _6  and  _7
REMARK    5  A    between atoms: _7  and  _8
REMARK    6  A    between atoms: _11  and  _12
REMARK    7  A    between atoms: _17  and  _19
REMARK    8  A    between atoms: _19  and  _20
REMARK    9  A    between atoms: _19  and  _22
REMARK   10  A    between atoms: _25  and  _27
REMARK   11  A    between atoms: _27  and  _28
REMARK   12  A    between atoms: _30  and  _32
REMARK   13  A    between atoms: _32  and  _33
REMARK   14  A    between atoms: _32  and  _35
REMARK   15  A    between atoms: _35  and  _36
REMARK   16  A    between atoms: _39  and  _41
REMARK   17  A    between atoms: _41  and  _42
REMARK   18  A    between atoms: _45  and  _47
REMARK   19  A    between atoms: _47  and  _48
REMARK   20  A    between atoms: _47  and  _50
REMARK   21  A    between atoms: _50  and  _51
REMARK   22  A    between atoms: _54  and  _56
REMARK   23  A    between atoms: _56  and  _57
REMARK   24  A    between atoms: _59  and  _61
REMARK   25  A    between atoms: _61  and  _62
REMARK   26  A    between atoms: _61  and  _64
REMARK   27  A    between atoms: _64  and  _65
REMARK   28  A    between atoms: _70  and  _72
REMARK   29  A    between atoms: _72  and  _73
REMARK   30  A    between atoms: _72  and  _75
REMARK   31  A    between atoms: _75  and  _76
REMARK   32  A    between atoms: _79  and  _81
REMARK   33  A    between atoms: _81  and  _82
REMARK   34  A    between atoms: _81  and  _84
REMARK   35  A    between atoms: _84  and  _85
REMARK   36  A    between atoms: _90  and  _91
REMARK   37  A    between atoms: _93  and  _95
REMARK   38  A    between atoms: _95  and  _96
REMARK   39  A    between atoms: _95  and  _98
REMARK   40  A    between atoms: _98  and  _99
REMARK   41  A    between atoms: _104  and  _106
REMARK   42  A    between atoms: _106  and  _107
REMARK   43  A    between atoms: _106  and  _109
REMARK   44  A    between atoms: _109  and  _110
REMARK   45  A    between atoms: _113  and  _115
REMARK   46  A    between atoms: _115  and  _116
REMARK   47  A    between atoms: _115  and  _118
REMARK   48  A    between atoms: _118  and  _119
REMARK   49  A    between atoms: _122  and  _124
REMARK   50  A    between atoms: _124  and  _125
REMARK   51  A    between atoms: _124  and  _127
REMARK   52  A    between atoms: _127  and  _128
REMARK   53  A    between atoms: _131  and  _133
REMARK   54  A    between atoms: _133  and  _134
REMARK   55  A    between atoms: _133  and  _136
REMARK   56  A    between atoms: _136  and  _137
REMARK   57  A    between atoms: _139  and  _141
REMARK   58  A    between atoms: _141  and  _142
REMARK   59  A    between atoms: _144  and  _146
REMARK   60  A    between atoms: _146  and  _147
REMARK   61  A    between atoms: _149  and  _151
REMARK   62  A    between atoms: _151  and  _152
REMARK   63  A    between atoms: _151  and  _154
REMARK   64  A    between atoms: _154  and  _155
REMARK   65  A    between atoms: _160  and  _161
REMARK   66  A    between atoms: _163  and  _165
REMARK   67  A    between atoms: _165  and  _166
REMARK   68  A    between atoms: _165  and  _168
REMARK   69  A    between atoms: _168  and  _169
REMARK   70  A    between atoms: _169  and  _170
REMARK   71  A    between atoms: _175  and  _177
REMARK   72  A    between atoms: _177  and  _178
REMARK   73  A    between atoms: _177  and  _180
REMARK   74  A    between atoms: _183  and  _185
REMARK   75  A    between atoms: _185  and  _186
REMARK   76  A    between atoms: _185  and  _188
REMARK   77  A    between atoms: _188  and  _189
REMARK   78  A    between atoms: _189  and  _190
REMARK   79  A    between atoms: _192  and  _194
REMARK   80  A    between atoms: _194  and  _195
REMARK   81  A    between atoms: _194  and  _197
REMARK   82  A    between atoms: _197  and  _198
REMARK   83  A    between atoms: _200  and  _202
REMARK   84  A    between atoms: _202  and  _203
REMARK   85  A    between atoms: _202  and  _205
REMARK   86  A    between atoms: _205  and  _206
REMARK   87  A    between atoms: _209  and  _211
REMARK   88  A    between atoms: _211  and  _212
REMARK   89  A    between atoms: _211  and  _214
REMARK   90  A    between atoms: _214  and  _215
REMARK   91  A    between atoms: _215  and  _216
REMARK   92  A    between atoms: _221  and  _223
REMARK   93  A    between atoms: _223  and  _224
REMARK   94  A    between atoms: _223  and  _226
REMARK   95  A    between atoms: _226  and  _227
REMARK   96  A    between atoms: _227  and  _228
REMARK   97  A    between atoms: _230  and  _232
REMARK   98  A    between atoms: _232  and  _233
REMARK   99  A    between atoms: _236  and  _238
REMARK  100  A    between atoms: _238  and  _239
REMARK  101  A    between atoms: _238  and  _241
REMARK  102  A    between atoms: _241  and  _242
REMARK  103  A    between atoms: _248  and  _250
REMARK  104  A    between atoms: _250  and  _251
REMARK  105  A    between atoms: _250  and  _253
REMARK  106  A    between atoms: _253  and  _254
REMARK  107  A    between atoms: _257  and  _259
REMARK  108  A    between atoms: _259  and  _260
REMARK  109  A    between atoms: _259  and  _262
REMARK  110  A    between atoms: _262  and  _263
REMARK  111  A    between atoms: _263  and  _264
REMARK  112  A    between atoms: _267  and  _269
REMARK  113  A    between atoms: _269  and  _270
REMARK  114  A    between atoms: _269  and  _272
REMARK  115  A    between atoms: _274  and  _276
REMARK  116  A    between atoms: _276  and  _277
REMARK  117  A    between atoms: _276  and  _279
REMARK  118  A    between atoms: _279  and  _280
REMARK  119  A    between atoms: _283  and  _285
REMARK  120  A    between atoms: _285  and  _286
REMARK  121  A    between atoms: _285  and  _288
REMARK  122  A    between atoms: _288  and  _289
REMARK  123  A    between atoms: _291  and  _293
REMARK  124  A    between atoms: _293  and  _294
REMARK  125  A    between atoms: _293  and  _296
REMARK  126  A    between atoms: _296  and  _297
REMARK  127  A    between atoms: _300  and  _302
REMARK  128  A    between atoms: _302  and  _303
REMARK  129  A    between atoms: _302  and  _305
REMARK  130  A    between atoms: _305  and  _306
REMARK  131  A    between atoms: _306  and  _307
REMARK  132  A    between atoms: _312  and  _314
REMARK  133  A    between atoms: _314  and  _315
REMARK  134  A    between atoms: _314  and  _317
REMARK  135  A    between atoms: _317  and  _318
REMARK  136  A    between atoms: _318  and  _319
REMARK  137  A    between atoms: _324  and  _326
REMARK  138  A    between atoms: _326  and  _327
REMARK  139  A    between atoms: _329  and  _331
REMARK  140  A    between atoms: _331  and  _332
REMARK  141  A    between atoms: _331  and  _334
REMARK  142  A    between atoms: _334  and  _335
REMARK  143  A    between atoms: _337  and  _339
REMARK  144  A    between atoms: _339  and  _340
REMARK  145  A    between atoms: _339  and  _342
REMARK  146  A    between atoms: _342  and  _343
REMARK  147  A    between atoms: _343  and  _344
REMARK  148  A    between atoms: _344  and  _345
REMARK  149  A    between atoms: _354  and  _356
REMARK  150  A    between atoms: _356  and  _357
REMARK  151  A    between atoms: _360  and  _362
REMARK  152  A    between atoms: _362  and  _363
REMARK  153  A    between atoms: _362  and  _365
REMARK  154  A    between atoms: _368  and  _370
REMARK  155  A    between atoms: _370  and  _371
REMARK  156  A    between atoms: _373  and  _375
REMARK  157  A    between atoms: _375  and  _376
REMARK  158  A    between atoms: _378  and  _380
REMARK  159  A    between atoms: _380  and  _381
REMARK  160  A    between atoms: _380  and  _383
REMARK  161  A    between atoms: _383  and  _384
REMARK  162  A    between atoms: _387  and  _389
REMARK  163  A    between atoms: _389  and  _390
REMARK  164  A    between atoms: _393  and  _395
REMARK  165  A    between atoms: _395  and  _396
REMARK  166  A    between atoms: _395  and  _398
REMARK  167  A    between atoms: _401  and  _403
REMARK  168  A    between atoms: _403  and  _404
REMARK  169  A    between atoms: _406  and  _408
REMARK  170  A    between atoms: _408  and  _409
REMARK  171  A    between atoms: _408  and  _411
REMARK  172  A    between atoms: _411  and  _412
REMARK  173  A    between atoms: _412  and  _413
REMARK  174  A    between atoms: _416  and  _418
REMARK  175  A    between atoms: _418  and  _419
REMARK  176  A    between atoms: _418  and  _421
REMARK  177  A    between atoms: _421  and  _422
REMARK  178  A    between atoms: _427  and  _428
REMARK  179  A    between atoms: _430  and  _432
REMARK  180  A    between atoms: _432  and  _433
REMARK  181  A    between atoms: _432  and  _435
REMARK  182  A    between atoms: _435  and  _436
REMARK  183  A    between atoms: _439  and  _441
REMARK  184  A    between atoms: _441  and  _442
REMARK  185  A    between atoms: _441  and  _444
REMARK  186  A    between atoms: _444  and  _445
REMARK  187  A    between atoms: _445  and  _446
REMARK  188  A    between atoms: _448  and  _450
REMARK  189  A    between atoms: _450  and  _451
REMARK  190  A    between atoms: _453  and  _455
REMARK  191  A    between atoms: _455  and  _456
REMARK  192  A    between atoms: _455  and  _458
REMARK  193  A    between atoms: _461  and  _463
REMARK  194  A    between atoms: _463  and  _464
REMARK  195  A    between atoms: _466  and  _468
REMARK  196  A    between atoms: _468  and  _469
REMARK  197  A    between atoms: _468  and  _471
REMARK  198  A    between atoms: _471  and  _472
REMARK  199  A    between atoms: _478  and  _480
REMARK  200  A    between atoms: _480  and  _481
REMARK  201  A    between atoms: _480  and  _483
REMARK  202  A    between atoms: _483  and  _484
REMARK  203  A    between atoms: _487  and  _489
REMARK  204  A    between atoms: _489  and  _490
REMARK  205  A    between atoms: _489  and  _492
REMARK  206  A    between atoms: _494  and  _496
REMARK  207  A    between atoms: _496  and  _497
REMARK  208  A    between atoms: _496  and  _499
REMARK  209  A    between atoms: _502  and  _504
REMARK  210  A    between atoms: _504  and  _505
REMARK  211  A    between atoms: _504  and  _507
REMARK  212  A    between atoms: _507  and  _508
REMARK  213  A    between atoms: _511  and  _513
REMARK  214  A    between atoms: _513  and  _514
REMARK  215  A    between atoms: _513  and  _516
REMARK  216  A    between atoms: _516  and  _517
REMARK  217  A    between atoms: _517  and  _518
REMARK  218  A    between atoms: _518  and  _519
REMARK                            x       y       z     vdW  Elec       q    Type
REMARK                         _______ _______ _______ _____ _____    ______ ____
ROOT
ATOM      1  O   HOH     1       9.224  17.923  78.438  0.00  0.00    +0.000 OA
ENDROOT
TORSDOF 0
REMARK  Name = ../refined-set-2016/4leq/4leq_pocket.pdb
REMARK  218 active torsions:
REMARK  status: ('A' for Active; 'I' for Inactive)
REMARK    1  A    between atoms: _1  and  _3
REMARK    2  A    between atoms: _3  and  _4
REMARK    3  A    between atoms: _3  and  _6
REMARK    4  A    between atoms: _6  and  _7
REMARK    5  A    between atoms: _7  and  _8
REMARK    6  A    between atoms: _11  and  _12
REMARK    7  A    between atoms: _17  and  _19
REMARK    8  A    between atoms: _19  and  _20
REMARK    9  A    between atoms: _19  and  _22
REMARK   10  A    between atoms: _25  and  _27
REMARK   11  A    between atoms: _27  and  _28
REMARK   12  A    between atoms: _30  and  _32
REMARK   13  A    between atoms: _32  and  _33
REMARK   14  A    between atoms: _32  and  _35
REMARK   15  A    between atoms: _35  and  _36
REMARK   16  A    between atoms: _39  and  _41
REMARK   17  A    between atoms: _41  and  _42
REMARK   18  A    between atoms: _45  and  _47
REMARK   19  A    between atoms: _47  and  _48
REMARK   20  A    between atoms: _47  and  _50
REMARK   21  A    between atoms: _50  and  _51
REMARK   22  A    between atoms: _54  and  _56
REMARK   23  A    between atoms: _56  and  _57
REMARK   24  A    between atoms: _59  and  _61
REMARK   25  A    between atoms: _61  and  _62
REMARK   26  A    between atoms: _61  and  _64
REMARK   27  A    between atoms: _64  and  _65
REMARK   28  A    between atoms: _70  and  _72
REMARK   29  A    between atoms: _72  and  _73
REMARK   30  A    between atoms: _72  and  _75
REMARK   31  A    between atoms: _75  and  _76
REMARK   32  A    between atoms: _79  and  _81
REMARK   33  A    between atoms: _81  and  _82
REMARK   34  A    between atoms: _81  and  _84
REMARK   35  A    between atoms: _84  and  _85
REMARK   36  A    between atoms: _90  and  _91
REMARK   37  A    between atoms: _93  and  _95
REMARK   38  A    between atoms: _95  and  _96
REMARK   39  A    between atoms: _95  and  _98
REMARK   40  A    between atoms: _98  and  _99
REMARK   41  A    between atoms: _104  and  _106
REMARK   42  A    between atoms: _106  and  _107
REMARK   43  A    between atoms: _106  and  _109
REMARK   44  A    between atoms: _109  and  _110
REMARK   45  A    between atoms: _113  and  _115
REMARK   46  A    between atoms: _115  and  _116
REMARK   47  A    between atoms: _115  and  _118
REMARK   48  A    between atoms: _118  and  _119
REMARK   49  A    between atoms: _122  and  _124
REMARK   50  A    between atoms: _124  and  _125
REMARK   51  A    between atoms: _124  and  _127
REMARK   52  A    between atoms: _127  and  _128
REMARK   53  A    between atoms: _131  and  _133
REMARK   54  A    between atoms: _133  and  _134
REMARK   55  A    between atoms: _133  and  _136
REMARK   56  A    between atoms: _136  and  _137
REMARK   57  A    between atoms: _139  and  _141
REMARK   58  A    between atoms: _141  and  _142
REMARK   59  A    between atoms: _144  and  _146
REMARK   60  A    between atoms: _146  and  _147
REMARK   61  A    between atoms: _149  and  _151
REMARK   62  A    between atoms: _151  and  _152
REMARK   63  A    between atoms: _151  and  _154
REMARK   64  A    between atoms: _154  and  _155
REMARK   65  A    between atoms: _160  and  _161
REMARK   66  A    between atoms: _163  and  _165
REMARK   67  A    between atoms: _165  and  _166
REMARK   68  A    between atoms: _165  and  _168
REMARK   69  A    between atoms: _168  and  _169
REMARK   70  A    between atoms: _169  and  _170
REMARK   71  A    between atoms: _175  and  _177
REMARK   72  A    between atoms: _177  and  _178
REMARK   73  A    between atoms: _177  and  _180
REMARK   74  A    between atoms: _183  and  _185
REMARK   75  A    between atoms: _185  and  _186
REMARK   76  A    between atoms: _185  and  _188
REMARK   77  A    between atoms: _188  and  _189
REMARK   78  A    between atoms: _189  and  _190
REMARK   79  A    between atoms: _192  and  _194
REMARK   80  A    between atoms: _194  and  _195
REMARK   81  A    between atoms: _194  and  _197
REMARK   82  A    between atoms: _197  and  _198
REMARK   83  A    between atoms: _200  and  _202
REMARK   84  A    between atoms: _202  and  _203
REMARK   85  A    between atoms: _202  and  _205
REMARK   86  A    between atoms: _205  and  _206
REMARK   87  A    between atoms: _209  and  _211
REMARK   88  A    between atoms: _211  and  _212
REMARK   89  A    between atoms: _211  and  _214
REMARK   90  A    between atoms: _214  and  _215
REMARK   91  A    between atoms: _215  and  _216
REMARK   92  A    between atoms: _221  and  _223
REMARK   93  A    between atoms: _223  and  _224
REMARK   94  A    between atoms: _223  and  _226
REMARK   95  A    between atoms: _226  and  _227
REMARK   96  A    between atoms: _227  and  _228
REMARK   97  A    between atoms: _230  and  _232
REMARK   98  A    between atoms: _232  and  _233
REMARK   99  A    between atoms: _236  and  _238
REMARK  100  A    between atoms: _238  and  _239
REMARK  101  A    between atoms: _238  and  _241
REMARK  102  A    between atoms: _241  and  _242
REMARK  103  A    between atoms: _248  and  _250
REMARK  104  A    between atoms: _250  and  _251
REMARK  105  A    between atoms: _250  and  _253
REMARK  106  A    between atoms: _253  and  _254
REMARK  107  A    between atoms: _257  and  _259
REMARK  108  A    between atoms: _259  and  _260
REMARK  109  A    between atoms: _259  and  _262
REMARK  110  A    between atoms: _262  and  _263
REMARK  111  A    between atoms: _263  and  _264
REMARK  112  A    between atoms: _267  and  _269
REMARK  113  A    between atoms: _269  and  _270
REMARK  114  A    between atoms: _269  and  _272
REMARK  115  A    between atoms: _274  and  _276
REMARK  116  A    between atoms: _276  and  _277
REMARK  117  A    between atoms: _276  and  _279
REMARK  118  A    between atoms: _279  and  _280
REMARK  119  A    between atoms: _283  and  _285
REMARK  120  A    between atoms: _285  and  _286
REMARK  121  A    between atoms: _285  and  _288
REMARK  122  A    between atoms: _288  and  _289
REMARK  123  A    between atoms: _291  and  _293
REMARK  124  A    between atoms: _293  and  _294
REMARK  125  A    between atoms: _293  and  _296
REMARK  126  A    between atoms: _296  and  _297
REMARK  127  A    between atoms: _300  and  _302
REMARK  128  A    between atoms: _302  and  _303
REMARK  129  A    between atoms: _302  and  _305
REMARK  130  A    between atoms: _305  and  _306
REMARK  131  A    between atoms: _306  and  _307
REMARK  132  A    between atoms: _312  and  _314
REMARK  133  A    between atoms: _314  and  _315
REMARK  134  A    between atoms: _314  and  _317
REMARK  135  A    between atoms: _317  and  _318
REMARK  136  A    between atoms: _318  and  _319
REMARK  137  A    between atoms: _324  and  _326
REMARK  138  A    between atoms: _326  and  _327
REMARK  139  A    between atoms: _329  and  _331
REMARK  140  A    between atoms: _331  and  _332
REMARK  141  A    between atoms: _331  and  _334
REMARK  142  A    between atoms: _334  and  _335
REMARK  143  A    between atoms: _337  and  _339
REMARK  144  A    between atoms: _339  and  _340
REMARK  145  A    between atoms: _339  and  _342
REMARK  146  A    between atoms: _342  and  _343
REMARK  147  A    between atoms: _343  and  _344
REMARK  148  A    between atoms: _344  and  _345
REMARK  149  A    between atoms: _354  and  _356
REMARK  150  A    between atoms: _356  and  _357
REMARK  151  A    between atoms: _360  and  _362
REMARK  152  A    between atoms: _362  and  _363
REMARK  153  A    between atoms: _362  and  _365
REMARK  154  A    between atoms: _368  and  _370
REMARK  155  A    between atoms: _370  and  _371
REMARK  156  A    between atoms: _373  and  _375
REMARK  157  A    between atoms: _375  and  _376
REMARK  158  A    between atoms: _378  and  _380
REMARK  159  A    between atoms: _380  and  _381
REMARK  160  A    between atoms: _380  and  _383
REMARK  161  A    between atoms: _383  and  _384
REMARK  162  A    between atoms: _387  and  _389
REMARK  163  A    between atoms: _389  and  _390
REMARK  164  A    between atoms: _393  and  _395
REMARK  165  A    between atoms: _395  and  _396
REMARK  166  A    between atoms: _395  and  _398
REMARK  167  A    between atoms: _401  and  _403
REMARK  168  A    between atoms: _403  and  _404
REMARK  169  A    between atoms: _406  and  _408
REMARK  170  A    between atoms: _408  and  _409
REMARK  171  A    between atoms: _408  and  _411
REMARK  172  A    between atoms: _411  and  _412
REMARK  173  A    between atoms: _412  and  _413
REMARK  174  A    between atoms: _416  and  _418
REMARK  175  A    between atoms: _418  and  _419
REMARK  176  A    between atoms: _418  and  _421
REMARK  177  A    between atoms: _421  and  _422
REMARK  178  A    between atoms: _427  and  _428
REMARK  179  A    between atoms: _430  and  _432
REMARK  180  A    between atoms: _432  and  _433
REMARK  181  A    between atoms: _432  and  _435
REMARK  182  A    between atoms: _435  and  _436
REMARK  183  A    between atoms: _439  and  _441
REMARK  184  A    between atoms: _441  and  _442
REMARK  185  A    between atoms: _441  and  _444
REMARK  186  A    between atoms: _444  and  _445
REMARK  187  A    between atoms: _445  and  _446
REMARK  188  A    between atoms: _448  and  _450
REMARK  189  A    between atoms: _450  and  _451
REMARK  190  A    between atoms: _453  and  _455
REMARK  191  A    between atoms: _455  and  _456
REMARK  192  A    between atoms: _455  and  _458
REMARK  193  A    between atoms: _461  and  _463
REMARK  194  A    between atoms: _463  and  _464
REMARK  195  A    between atoms: _466  and  _468
REMARK  196  A    between atoms: _468  and  _469
REMARK  197  A    between atoms: _468  and  _471
REMARK  198  A    between atoms: _471  and  _472
REMARK  199  A    between atoms: _478  and  _480
REMARK  200  A    between atoms: _480  and  _481
REMARK  201  A    between atoms: _480  and  _483
REMARK  202  A    between atoms: _483  and  _484
REMARK  203  A    between atoms: _487  and  _489
REMARK  204  A    between atoms: _489  and  _490
REMARK  205  A    between atoms: _489  and  _492
REMARK  206  A    between atoms: _494  and  _496
REMARK  207  A    between atoms: _496  and  _497
REMARK  208  A    between atoms: _496  and  _499
REMARK  209  A    between atoms: _502  and  _504
REMARK  210  A    between atoms: _504  and  _505
REMARK  211  A    between atoms: _504  and  _507
REMARK  212  A    between atoms: _507  and  _508
REMARK  213  A    between atoms: _511  and  _513
REMARK  214  A    between atoms: _513  and  _514
REMARK  215  A    between atoms: _513  and  _516
REMARK  216  A    between atoms: _516  and  _517
REMARK  217  A    between atoms: _517  and  _518
REMARK  218  A    between atoms: _518  and  _519
REMARK                            x       y       z     vdW  Elec       q    Type
REMARK                         _______ _______ _______ _____ _____    ______ ____
ROOT
ATOM      1  O   HOH     1       5.491  18.222  83.204  0.00  0.00    +0.000 OA
ENDROOT
TORSDOF 0
REMARK  Name = ../refined-set-2016/4leq/4leq_pocket.pdb
REMARK  218 active torsions:
REMARK  status: ('A' for Active; 'I' for Inactive)
REMARK    1  A    between atoms: _1  and  _3
REMARK    2  A    between atoms: _3  and  _4
REMARK    3  A    between atoms: _3  and  _6
REMARK    4  A    between atoms: _6  and  _7
REMARK    5  A    between atoms: _7  and  _8
REMARK    6  A    between atoms: _11  and  _12
REMARK    7  A    between atoms: _17  and  _19
REMARK    8  A    between atoms: _19  and  _20
REMARK    9  A    between atoms: _19  and  _22
REMARK   10  A    between atoms: _25  and  _27
REMARK   11  A    between atoms: _27  and  _28
REMARK   12  A    between atoms: _30  and  _32
REMARK   13  A    between atoms: _32  and  _33
REMARK   14  A    between atoms: _32  and  _35
REMARK   15  A    between atoms: _35  and  _36
REMARK   16  A    between atoms: _39  and  _41
REMARK   17  A    between atoms: _41  and  _42
REMARK   18  A    between atoms: _45  and  _47
REMARK   19  A    between atoms: _47  and  _48
REMARK   20  A    between atoms: _47  and  _50
REMARK   21  A    between atoms: _50  and  _51
REMARK   22  A    between atoms: _54  and  _56
REMARK   23  A    between atoms: _56  and  _57
REMARK   24  A    between atoms: _59  and  _61
REMARK   25  A    between atoms: _61  and  _62
REMARK   26  A    between atoms: _61  and  _64
REMARK   27  A    between atoms: _64  and  _65
REMARK   28  A    between atoms: _70  and  _72
REMARK   29  A    between atoms: _72  and  _73
REMARK   30  A    between atoms: _72  and  _75
REMARK   31  A    between atoms: _75  and  _76
REMARK   32  A    between atoms: _79  and  _81
REMARK   33  A    between atoms: _81  and  _82
REMARK   34  A    between atoms: _81  and  _84
REMARK   35  A    between atoms: _84  and  _85
REMARK   36  A    between atoms: _90  and  _91
REMARK   37  A    between atoms: _93  and  _95
REMARK   38  A    between atoms: _95  and  _96
REMARK   39  A    between atoms: _95  and  _98
REMARK   40  A    between atoms: _98  and  _99
REMARK   41  A    between atoms: _104  and  _106
REMARK   42  A    between atoms: _106  and  _107
REMARK   43  A    between atoms: _106  and  _109
REMARK   44  A    between atoms: _109  and  _110
REMARK   45  A    between atoms: _113  and  _115
REMARK   46  A    between atoms: _115  and  _116
REMARK   47  A    between atoms: _115  and  _118
REMARK   48  A    between atoms: _118  and  _119
REMARK   49  A    between atoms: _122  and  _124
REMARK   50  A    between atoms: _124  and  _125
REMARK   51  A    between atoms: _124  and  _127
REMARK   52  A    between atoms: _127  and  _128
REMARK   53  A    between atoms: _131  and  _133
REMARK   54  A    between atoms: _133  and  _134
REMARK   55  A    between atoms: _133  and  _136
REMARK   56  A    between atoms: _136  and  _137
REMARK   57  A    between atoms: _139  and  _141
REMARK   58  A    between atoms: _141  and  _142
REMARK   59  A    between atoms: _144  and  _146
REMARK   60  A    between atoms: _146  and  _147
REMARK   61  A    between atoms: _149  and  _151
REMARK   62  A    between atoms: _151  and  _152
REMARK   63  A    between atoms: _151  and  _154
REMARK   64  A    between atoms: _154  and  _155
REMARK   65  A    between atoms: _160  and  _161
REMARK   66  A    between atoms: _163  and  _165
REMARK   67  A    between atoms: _165  and  _166
REMARK   68  A    between atoms: _165  and  _168
REMARK   69  A    between atoms: _168  and  _169
REMARK   70  A    between atoms: _169  and  _170
REMARK   71  A    between atoms: _175  and  _177
REMARK   72  A    between atoms: _177  and  _178
REMARK   73  A    between atoms: _177  and  _180
REMARK   74  A    between atoms: _183  and  _185
REMARK   75  A    between atoms: _185  and  _186
REMARK   76  A    between atoms: _185  and  _188
REMARK   77  A    between atoms: _188  and  _189
REMARK   78  A    between atoms: _189  and  _190
REMARK   79  A    between atoms: _192  and  _194
REMARK   80  A    between atoms: _194  and  _195
REMARK   81  A    between atoms: _194  and  _197
REMARK   82  A    between atoms: _197  and  _198
REMARK   83  A    between atoms: _200  and  _202
REMARK   84  A    between atoms: _202  and  _203
REMARK   85  A    between atoms: _202  and  _205
REMARK   86  A    between atoms: _205  and  _206
REMARK   87  A    between atoms: _209  and  _211
REMARK   88  A    between atoms: _211  and  _212
REMARK   89  A    between atoms: _211  and  _214
REMARK   90  A    between atoms: _214  and  _215
REMARK   91  A    between atoms: _215  and  _216
REMARK   92  A    between atoms: _221  and  _223
REMARK   93  A    between atoms: _223  and  _224
REMARK   94  A    between atoms: _223  and  _226
REMARK   95  A    between atoms: _226  and  _227
REMARK   96  A    between atoms: _227  and  _228
REMARK   97  A    between atoms: _230  and  _232
REMARK   98  A    between atoms: _232  and  _233
REMARK   99  A    between atoms: _236  and  _238
REMARK  100  A    between atoms: _238  and  _239
REMARK  101  A    between atoms: _238  and  _241
REMARK  102  A    between atoms: _241  and  _242
REMARK  103  A    between atoms: _248  and  _250
REMARK  104  A    between atoms: _250  and  _251
REMARK  105  A    between atoms: _250  and  _253
REMARK  106  A    between atoms: _253  and  _254
REMARK  107  A    between atoms: _257  and  _259
REMARK  108  A    between atoms: _259  and  _260
REMARK  109  A    between atoms: _259  and  _262
REMARK  110  A    between atoms: _262  and  _263
REMARK  111  A    between atoms: _263  and  _264
REMARK  112  A    between atoms: _267  and  _269
REMARK  113  A    between atoms: _269  and  _270
REMARK  114  A    between atoms: _269  and  _272
REMARK  115  A    between atoms: _274  and  _276
REMARK  116  A    between atoms: _276  and  _277
REMARK  117  A    between atoms: _276  and  _279
REMARK  118  A    between atoms: _279  and  _280
REMARK  119  A    between atoms: _283  and  _285
REMARK  120  A    between atoms: _285  and  _286
REMARK  121  A    between atoms: _285  and  _288
REMARK  122  A    between atoms: _288  and  _289
REMARK  123  A    between atoms: _291  and  _293
REMARK  124  A    between atoms: _293  and  _294
REMARK  125  A    between atoms: _293  and  _296
REMARK  126  A    between atoms: _296  and  _297
REMARK  127  A    between atoms: _300  and  _302
REMARK  128  A    between atoms: _302  and  _303
REMARK  129  A    between atoms: _302  and  _305
REMARK  130  A    between atoms: _305  and  _306
REMARK  131  A    between atoms: _306  and  _307
REMARK  132  A    between atoms: _312  and  _314
REMARK  133  A    between atoms: _314  and  _315
REMARK  134  A    between atoms: _314  and  _317
REMARK  135  A    between atoms: _317  and  _318
REMARK  136  A    between atoms: _318  and  _319
REMARK  137  A    between atoms: _324  and  _326
REMARK  138  A    between atoms: _326  and  _327
REMARK  139  A    between atoms: _329  and  _331
REMARK  140  A    between atoms: _331  and  _332
REMARK  141  A    between atoms: _331  and  _334
REMARK  142  A    between atoms: _334  and  _335
REMARK  143  A    between atoms: _337  and  _339
REMARK  144  A    between atoms: _339  and  _340
REMARK  145  A    between atoms: _339  and  _342
REMARK  146  A    between atoms: _342  and  _343
REMARK  147  A    between atoms: _343  and  _344
REMARK  148  A    between atoms: _344  and  _345
REMARK  149  A    between atoms: _354  and  _356
REMARK  150  A    between atoms: _356  and  _357
REMARK  151  A    between atoms: _360  and  _362
REMARK  152  A    between atoms: _362  and  _363
REMARK  153  A    between atoms: _362  and  _365
REMARK  154  A    between atoms: _368  and  _370
REMARK  155  A    between atoms: _370  and  _371
REMARK  156  A    between atoms: _373  and  _375
REMARK  157  A    between atoms: _375  and  _376
REMARK  158  A    between atoms: _378  and  _380
REMARK  159  A    between atoms: _380  and  _381
REMARK  160  A    between atoms: _380  and  _383
REMARK  161  A    between atoms: _383  and  _384
REMARK  162  A    between atoms: _387  and  _389
REMARK  163  A    between atoms: _389  and  _390
REMARK  164  A    between atoms: _393  and  _395
REMARK  165  A    between atoms: _395  and  _396
REMARK  166  A    between atoms: _395  and  _398
REMARK  167  A    between atoms: _401  and  _403
REMARK  168  A    between atoms: _403  and  _404
REMARK  169  A    between atoms: _406  and  _408
REMARK  170  A    between atoms: _408  and  _409
REMARK  171  A    between atoms: _408  and  _411
REMARK  172  A    between atoms: _411  and  _412
REMARK  173  A    between atoms: _412  and  _413
REMARK  174  A    between atoms: _416  and  _418
REMARK  175  A    between atoms: _418  and  _419
REMARK  176  A    between atoms: _418  and  _421
REMARK  177  A    between atoms: _421  and  _422
REMARK  178  A    between atoms: _427  and  _428
REMARK  179  A    between atoms: _430  and  _432
REMARK  180  A    between atoms: _432  and  _433
REMARK  181  A    between atoms: _432  and  _435
REMARK  182  A    between atoms: _435  and  _436
REMARK  183  A    between atoms: _439  and  _441
REMARK  184  A    between atoms: _441  and  _442
REMARK  185  A    between atoms: _441  and  _444
REMARK  186  A    between atoms: _444  and  _445
REMARK  187  A    between atoms: _445  and  _446
REMARK  188  A    between atoms: _448  and  _450
REMARK  189  A    between atoms: _450  and  _451
REMARK  190  A    between atoms: _453  and  _455
REMARK  191  A    between atoms: _455  and  _456
REMARK  192  A    between atoms: _455  and  _458
REMARK  193  A    between atoms: _461  and  _463
REMARK  194  A    between atoms: _463  and  _464
REMARK  195  A    between atoms: _466  and  _468
REMARK  196  A    between atoms: _468  and  _469
REMARK  197  A    between atoms: _468  and  _471
REMARK  198  A    between atoms: _471  and  _472
REMARK  199  A    between atoms: _478  and  _480
REMARK  200  A    between atoms: _480  and  _481
REMARK  201  A    between atoms: _480  and  _483
REMARK  202  A    between atoms: _483  and  _484
REMARK  203  A    between atoms: _487  and  _489
REMARK  204  A    between atoms: _489  and  _490
REMARK  205  A    between atoms: _489  and  _492
REMARK  206  A    between atoms: _494  and  _496
REMARK  207  A    between atoms: _496  and  _497
REMARK  208  A    between atoms: _496  and  _499
REMARK  209  A    between atoms: _502  and  _504
REMARK  210  A    between atoms: _504  and  _505
REMARK  211  A    between atoms: _504  and  _507
REMARK  212  A    between atoms: _507  and  _508
REMARK  213  A    between atoms: _511  and  _513
REMARK  214  A    between atoms: _513  and  _514
REMARK  215  A    between atoms: _513  and  _516
REMARK  216  A    between atoms: _516  and  _517
REMARK  217  A    between atoms: _517  and  _518
REMARK  218  A    between atoms: _518  and  _519
REMARK                            x       y       z     vdW  Elec       q    Type
REMARK                         _______ _______ _______ _____ _____    ______ ____
ROOT
ATOM      1  O   HOH     1       4.953  22.849  84.340  0.00  0.00    +0.000 OA
ENDROOT
TORSDOF 0
REMARK  Name = ../refined-set-2016/4leq/4leq_pocket.pdb
REMARK  218 active torsions:
REMARK  status: ('A' for Active; 'I' for Inactive)
REMARK    1  A    between atoms: _1  and  _3
REMARK    2  A    between atoms: _3  and  _4
REMARK    3  A    between atoms: _3  and  _6
REMARK    4  A    between atoms: _6  and  _7
REMARK    5  A    between atoms: _7  and  _8
REMARK    6  A    between atoms: _11  and  _12
REMARK    7  A    between atoms: _17  and  _19
REMARK    8  A    between atoms: _19  and  _20
REMARK    9  A    between atoms: _19  and  _22
REMARK   10  A    between atoms: _25  and  _27
REMARK   11  A    between atoms: _27  and  _28
REMARK   12  A    between atoms: _30  and  _32
REMARK   13  A    between atoms: _32  and  _33
REMARK   14  A    between atoms: _32  and  _35
REMARK   15  A    between atoms: _35  and  _36
REMARK   16  A    between atoms: _39  and  _41
REMARK   17  A    between atoms: _41  and  _42
REMARK   18  A    between atoms: _45  and  _47
REMARK   19  A    between atoms: _47  and  _48
REMARK   20  A    between atoms: _47  and  _50
REMARK   21  A    between atoms: _50  and  _51
REMARK   22  A    between atoms: _54  and  _56
REMARK   23  A    between atoms: _56  and  _57
REMARK   24  A    between atoms: _59  and  _61
REMARK   25  A    between atoms: _61  and  _62
REMARK   26  A    between atoms: _61  and  _64
REMARK   27  A    between atoms: _64  and  _65
REMARK   28  A    between atoms: _70  and  _72
REMARK   29  A    between atoms: _72  and  _73
REMARK   30  A    between atoms: _72  and  _75
REMARK   31  A    between atoms: _75  and  _76
REMARK   32  A    between atoms: _79  and  _81
REMARK   33  A    between atoms: _81  and  _82
REMARK   34  A    between atoms: _81  and  _84
REMARK   35  A    between atoms: _84  and  _85
REMARK   36  A    between atoms: _90  and  _91
REMARK   37  A    between atoms: _93  and  _95
REMARK   38  A    between atoms: _95  and  _96
REMARK   39  A    between atoms: _95  and  _98
REMARK   40  A    between atoms: _98  and  _99
REMARK   41  A    between atoms: _104  and  _106
REMARK   42  A    between atoms: _106  and  _107
REMARK   43  A    between atoms: _106  and  _109
REMARK   44  A    between atoms: _109  and  _110
REMARK   45  A    between atoms: _113  and  _115
REMARK   46  A    between atoms: _115  and  _116
REMARK   47  A    between atoms: _115  and  _118
REMARK   48  A    between atoms: _118  and  _119
REMARK   49  A    between atoms: _122  and  _124
REMARK   50  A    between atoms: _124  and  _125
REMARK   51  A    between atoms: _124  and  _127
REMARK   52  A    between atoms: _127  and  _128
REMARK   53  A    between atoms: _131  and  _133
REMARK   54  A    between atoms: _133  and  _134
REMARK   55  A    between atoms: _133  and  _136
REMARK   56  A    between atoms: _136  and  _137
REMARK   57  A    between atoms: _139  and  _141
REMARK   58  A    between atoms: _141  and  _142
REMARK   59  A    between atoms: _144  and  _146
REMARK   60  A    between atoms: _146  and  _147
REMARK   61  A    between atoms: _149  and  _151
REMARK   62  A    between atoms: _151  and  _152
REMARK   63  A    between atoms: _151  and  _154
REMARK   64  A    between atoms: _154  and  _155
REMARK   65  A    between atoms: _160  and  _161
REMARK   66  A    between atoms: _163  and  _165
REMARK   67  A    between atoms: _165  and  _166
REMARK   68  A    between atoms: _165  and  _168
REMARK   69  A    between atoms: _168  and  _169
REMARK   70  A    between atoms: _169  and  _170
REMARK   71  A    between atoms: _175  and  _177
REMARK   72  A    between atoms: _177  and  _178
REMARK   73  A    between atoms: _177  and  _180
REMARK   74  A    between atoms: _183  and  _185
REMARK   75  A    between atoms: _185  and  _186
REMARK   76  A    between atoms: _185  and  _188
REMARK   77  A    between atoms: _188  and  _189
REMARK   78  A    between atoms: _189  and  _190
REMARK   79  A    between atoms: _192  and  _194
REMARK   80  A    between atoms: _194  and  _195
REMARK   81  A    between atoms: _194  and  _197
REMARK   82  A    between atoms: _197  and  _198
REMARK   83  A    between atoms: _200  and  _202
REMARK   84  A    between atoms: _202  and  _203
REMARK   85  A    between atoms: _202  and  _205
REMARK   86  A    between atoms: _205  and  _206
REMARK   87  A    between atoms: _209  and  _211
REMARK   88  A    between atoms: _211  and  _212
REMARK   89  A    between atoms: _211  and  _214
REMARK   90  A    between atoms: _214  and  _215
REMARK   91  A    between atoms: _215  and  _216
REMARK   92  A    between atoms: _221  and  _223
REMARK   93  A    between atoms: _223  and  _224
REMARK   94  A    between atoms: _223  and  _226
REMARK   95  A    between atoms: _226  and  _227
REMARK   96  A    between atoms: _227  and  _228
REMARK   97  A    between atoms: _230  and  _232
REMARK   98  A    between atoms: _232  and  _233
REMARK   99  A    between atoms: _236  and  _238
REMARK  100  A    between atoms: _238  and  _239
REMARK  101  A    between atoms: _238  and  _241
REMARK  102  A    between atoms: _241  and  _242
REMARK  103  A    between atoms: _248  and  _250
REMARK  104  A    between atoms: _250  and  _251
REMARK  105  A    between atoms: _250  and  _253
REMARK  106  A    between atoms: _253  and  _254
REMARK  107  A    between atoms: _257  and  _259
REMARK  108  A    between atoms: _259  and  _260
REMARK  109  A    between atoms: _259  and  _262
REMARK  110  A    between atoms: _262  and  _263
REMARK  111  A    between atoms: _263  and  _264
REMARK  112  A    between atoms: _267  and  _269
REMARK  113  A    between atoms: _269  and  _270
REMARK  114  A    between atoms: _269  and  _272
REMARK  115  A    between atoms: _274  and  _276
REMARK  116  A    between atoms: _276  and  _277
REMARK  117  A    between atoms: _276  and  _279
REMARK  118  A    between atoms: _279  and  _280
REMARK  119  A    between atoms: _283  and  _285
REMARK  120  A    between atoms: _285  and  _286
REMARK  121  A    between atoms: _285  and  _288
REMARK  122  A    between atoms: _288  and  _289
REMARK  123  A    between atoms: _291  and  _293
REMARK  124  A    between atoms: _293  and  _294
REMARK  125  A    between atoms: _293  and  _296
REMARK  126  A    between atoms: _296  and  _297
REMARK  127  A    between atoms: _300  and  _302
REMARK  128  A    between atoms: _302  and  _303
REMARK  129  A    between atoms: _302  and  _305
REMARK  130  A    between atoms: _305  and  _306
REMARK  131  A    between atoms: _306  and  _307
REMARK  132  A    between atoms: _312  and  _314
REMARK  133  A    between atoms: _314  and  _315
REMARK  134  A    between atoms: _314  and  _317
REMARK  135  A    between atoms: _317  and  _318
REMARK  136  A    between atoms: _318  and  _319
REMARK  137  A    between atoms: _324  and  _326
REMARK  138  A    between atoms: _326  and  _327
REMARK  139  A    between atoms: _329  and  _331
REMARK  140  A    between atoms: _331  and  _332
REMARK  141  A    between atoms: _331  and  _334
REMARK  142  A    between atoms: _334  and  _335
REMARK  143  A    between atoms: _337  and  _339
REMARK  144  A    between atoms: _339  and  _340
REMARK  145  A    between atoms: _339  and  _342
REMARK  146  A    between atoms: _342  and  _343
REMARK  147  A    between atoms: _343  and  _344
REMARK  148  A    between atoms: _344  and  _345
REMARK  149  A    between atoms: _354  and  _356
REMARK  150  A    between atoms: _356  and  _357
REMARK  151  A    between atoms: _360  and  _362
REMARK  152  A    between atoms: _362  and  _363
REMARK  153  A    between atoms: _362  and  _365
REMARK  154  A    between atoms: _368  and  _370
REMARK  155  A    between atoms: _370  and  _371
REMARK  156  A    between atoms: _373  and  _375
REMARK  157  A    between atoms: _375  and  _376
REMARK  158  A    between atoms: _378  and  _380
REMARK  159  A    between atoms: _380  and  _381
REMARK  160  A    between atoms: _380  and  _383
REMARK  161  A    between atoms: _383  and  _384
REMARK  162  A    between atoms: _387  and  _389
REMARK  163  A    between atoms: _389  and  _390
REMARK  164  A    between atoms: _393  and  _395
REMARK  165  A    between atoms: _395  and  _396
REMARK  166  A    between atoms: _395  and  _398
REMARK  167  A    between atoms: _401  and  _403
REMARK  168  A    between atoms: _403  and  _404
REMARK  169  A    between atoms: _406  and  _408
REMARK  170  A    between atoms: _408  and  _409
REMARK  171  A    between atoms: _408  and  _411
REMARK  172  A    between atoms: _411  and  _412
REMARK  173  A    between atoms: _412  and  _413
REMARK  174  A    between atoms: _416  and  _418
REMARK  175  A    between atoms: _418  and  _419
REMARK  176  A    between atoms: _418  and  _421
REMARK  177  A    between atoms: _421  and  _422
REMARK  178  A    between atoms: _427  and  _428
REMARK  179  A    between atoms: _430  and  _432
REMARK  180  A    between atoms: _432  and  _433
REMARK  181  A    between atoms: _432  and  _435
REMARK  182  A    between atoms: _435  and  _436
REMARK  183  A    between atoms: _439  and  _441
REMARK  184  A    between atoms: _441  and  _442
REMARK  185  A    between atoms: _441  and  _444
REMARK  186  A    between atoms: _444  and  _445
REMARK  187  A    between atoms: _445  and  _446
REMARK  188  A    between atoms: _448  and  _450
REMARK  189  A    between atoms: _450  and  _451
REMARK  190  A    between atoms: _453  and  _455
REMARK  191  A    between atoms: _455  and  _456
REMARK  192  A    between atoms: _455  and  _458
REMARK  193  A    between atoms: _461  and  _463
REMARK  194  A    between atoms: _463  and  _464
REMARK  195  A    between atoms: _466  and  _468
REMARK  196  A    between atoms: _468  and  _469
REMARK  197  A    between atoms: _468  and  _471
REMARK  198  A    between atoms: _471  and  _472
REMARK  199  A    between atoms: _478  and  _480
REMARK  200  A    between atoms: _480  and  _481
REMARK  201  A    between atoms: _480  and  _483
REMARK  202  A    between atoms: _483  and  _484
REMARK  203  A    between atoms: _487  and  _489
REMARK  204  A    between atoms: _489  and  _490
REMARK  205  A    between atoms: _489  and  _492
REMARK  206  A    between atoms: _494  and  _496
REMARK  207  A    between atoms: _496  and  _497
REMARK  208  A    between atoms: _496  and  _499
REMARK  209  A    between atoms: _502  and  _504
REMARK  210  A    between atoms: _504  and  _505
REMARK  211  A    between atoms: _504  and  _507
REMARK  212  A    between atoms: _507  and  _508
REMARK  213  A    between atoms: _511  and  _513
REMARK  214  A    between atoms: _513  and  _514
REMARK  215  A    between atoms: _513  and  _516
REMARK  216  A    between atoms: _516  and  _517
REMARK  217  A    between atoms: _517  and  _518
REMARK  218  A    between atoms: _518  and  _519
REMARK                            x       y       z     vdW  Elec       q    Type
REMARK                         _______ _______ _______ _____ _____    ______ ____
ROOT
ATOM      1  O   HOH     1       5.507  20.377  82.298  0.00  0.00    +0.000 OA
ENDROOT
TORSDOF 0
REMARK  Name = ../refined-set-2016/4leq/4leq_pocket.pdb
REMARK  218 active torsions:
REMARK  status: ('A' for Active; 'I' for Inactive)
REMARK    1  A    between atoms: _1  and  _3
REMARK    2  A    between atoms: _3  and  _4
REMARK    3  A    between atoms: _3  and  _6
REMARK    4  A    between atoms: _6  and  _7
REMARK    5  A    between atoms: _7  and  _8
REMARK    6  A    between atoms: _11  and  _12
REMARK    7  A    between atoms: _17  and  _19
REMARK    8  A    between atoms: _19  and  _20
REMARK    9  A    between atoms: _19  and  _22
REMARK   10  A    between atoms: _25  and  _27
REMARK   11  A    between atoms: _27  and  _28
REMARK   12  A    between atoms: _30  and  _32
REMARK   13  A    between atoms: _32  and  _33
REMARK   14  A    between atoms: _32  and  _35
REMARK   15  A    between atoms: _35  and  _36
REMARK   16  A    between atoms: _39  and  _41
REMARK   17  A    between atoms: _41  and  _42
REMARK   18  A    between atoms: _45  and  _47
REMARK   19  A    between atoms: _47  and  _48
REMARK   20  A    between atoms: _47  and  _50
REMARK   21  A    between atoms: _50  and  _51
REMARK   22  A    between atoms: _54  and  _56
REMARK   23  A    between atoms: _56  and  _57
REMARK   24  A    between atoms: _59  and  _61
REMARK   25  A    between atoms: _61  and  _62
REMARK   26  A    between atoms: _61  and  _64
REMARK   27  A    between atoms: _64  and  _65
REMARK   28  A    between atoms: _70  and  _72
REMARK   29  A    between atoms: _72  and  _73
REMARK   30  A    between atoms: _72  and  _75
REMARK   31  A    between atoms: _75  and  _76
REMARK   32  A    between atoms: _79  and  _81
REMARK   33  A    between atoms: _81  and  _82
REMARK   34  A    between atoms: _81  and  _84
REMARK   35  A    between atoms: _84  and  _85
REMARK   36  A    between atoms: _90  and  _91
REMARK   37  A    between atoms: _93  and  _95
REMARK   38  A    between atoms: _95  and  _96
REMARK   39  A    between atoms: _95  and  _98
REMARK   40  A    between atoms: _98  and  _99
REMARK   41  A    between atoms: _104  and  _106
REMARK   42  A    between atoms: _106  and  _107
REMARK   43  A    between atoms: _106  and  _109
REMARK   44  A    between atoms: _109  and  _110
REMARK   45  A    between atoms: _113  and  _115
REMARK   46  A    between atoms: _115  and  _116
REMARK   47  A    between atoms: _115  and  _118
REMARK   48  A    between atoms: _118  and  _119
REMARK   49  A    between atoms: _122  and  _124
REMARK   50  A    between atoms: _124  and  _125
REMARK   51  A    between atoms: _124  and  _127
REMARK   52  A    between atoms: _127  and  _128
REMARK   53  A    between atoms: _131  and  _133
REMARK   54  A    between atoms: _133  and  _134
REMARK   55  A    between atoms: _133  and  _136
REMARK   56  A    between atoms: _136  and  _137
REMARK   57  A    between atoms: _139  and  _141
REMARK   58  A    between atoms: _141  and  _142
REMARK   59  A    between atoms: _144  and  _146
REMARK   60  A    between atoms: _146  and  _147
REMARK   61  A    between atoms: _149  and  _151
REMARK   62  A    between atoms: _151  and  _152
REMARK   63  A    between atoms: _151  and  _154
REMARK   64  A    between atoms: _154  and  _155
REMARK   65  A    between atoms: _160  and  _161
REMARK   66  A    between atoms: _163  and  _165
REMARK   67  A    between atoms: _165  and  _166
REMARK   68  A    between atoms: _165  and  _168
REMARK   69  A    between atoms: _168  and  _169
REMARK   70  A    between atoms: _169  and  _170
REMARK   71  A    between atoms: _175  and  _177
REMARK   72  A    between atoms: _177  and  _178
REMARK   73  A    between atoms: _177  and  _180
REMARK   74  A    between atoms: _183  and  _185
REMARK   75  A    between atoms: _185  and  _186
REMARK   76  A    between atoms: _185  and  _188
REMARK   77  A    between atoms: _188  and  _189
REMARK   78  A    between atoms: _189  and  _190
REMARK   79  A    between atoms: _192  and  _194
REMARK   80  A    between atoms: _194  and  _195
REMARK   81  A    between atoms: _194  and  _197
REMARK   82  A    between atoms: _197  and  _198
REMARK   83  A    between atoms: _200  and  _202
REMARK   84  A    between atoms: _202  and  _203
REMARK   85  A    between atoms: _202  and  _205
REMARK   86  A    between atoms: _205  and  _206
REMARK   87  A    between atoms: _209  and  _211
REMARK   88  A    between atoms: _211  and  _212
REMARK   89  A    between atoms: _211  and  _214
REMARK   90  A    between atoms: _214  and  _215
REMARK   91  A    between atoms: _215  and  _216
REMARK   92  A    between atoms: _221  and  _223
REMARK   93  A    between atoms: _223  and  _224
REMARK   94  A    between atoms: _223  and  _226
REMARK   95  A    between atoms: _226  and  _227
REMARK   96  A    between atoms: _227  and  _228
REMARK   97  A    between atoms: _230  and  _232
REMARK   98  A    between atoms: _232  and  _233
REMARK   99  A    between atoms: _236  and  _238
REMARK  100  A    between atoms: _238  and  _239
REMARK  101  A    between atoms: _238  and  _241
REMARK  102  A    between atoms: _241  and  _242
REMARK  103  A    between atoms: _248  and  _250
REMARK  104  A    between atoms: _250  and  _251
REMARK  105  A    between atoms: _250  and  _253
REMARK  106  A    between atoms: _253  and  _254
REMARK  107  A    between atoms: _257  and  _259
REMARK  108  A    between atoms: _259  and  _260
REMARK  109  A    between atoms: _259  and  _262
REMARK  110  A    between atoms: _262  and  _263
REMARK  111  A    between atoms: _263  and  _264
REMARK  112  A    between atoms: _267  and  _269
REMARK  113  A    between atoms: _269  and  _270
REMARK  114  A    between atoms: _269  and  _272
REMARK  115  A    between atoms: _274  and  _276
REMARK  116  A    between atoms: _276  and  _277
REMARK  117  A    between atoms: _276  and  _279
REMARK  118  A    between atoms: _279  and  _280
REMARK  119  A    between atoms: _283  and  _285
REMARK  120  A    between atoms: _285  and  _286
REMARK  121  A    between atoms: _285  and  _288
REMARK  122  A    between atoms: _288  and  _289
REMARK  123  A    between atoms: _291  and  _293
REMARK  124  A    between atoms: _293  and  _294
REMARK  125  A    between atoms: _293  and  _296
REMARK  126  A    between atoms: _296  and  _297
REMARK  127  A    between atoms: _300  and  _302
REMARK  128  A    between atoms: _302  and  _303
REMARK  129  A    between atoms: _302  and  _305
REMARK  130  A    between atoms: _305  and  _306
REMARK  131  A    between atoms: _306  and  _307
REMARK  132  A    between atoms: _312  and  _314
REMARK  133  A    between atoms: _314  and  _315
REMARK  134  A    between atoms: _314  and  _317
REMARK  135  A    between atoms: _317  and  _318
REMARK  136  A    between atoms: _318  and  _319
REMARK  137  A    between atoms: _324  and  _326
REMARK  138  A    between atoms: _326  and  _327
REMARK  139  A    between atoms: _329  and  _331
REMARK  140  A    between atoms: _331  and  _332
REMARK  141  A    between atoms: _331  and  _334
REMARK  142  A    between atoms: _334  and  _335
REMARK  143  A    between atoms: _337  and  _339
REMARK  144  A    between atoms: _339  and  _340
REMARK  145  A    between atoms: _339  and  _342
REMARK  146  A    between atoms: _342  and  _343
REMARK  147  A    between atoms: _343  and  _344
REMARK  148  A    between atoms: _344  and  _345
REMARK  149  A    between atoms: _354  and  _356
REMARK  150  A    between atoms: _356  and  _357
REMARK  151  A    between atoms: _360  and  _362
REMARK  152  A    between atoms: _362  and  _363
REMARK  153  A    between atoms: _362  and  _365
REMARK  154  A    between atoms: _368  and  _370
REMARK  155  A    between atoms: _370  and  _371
REMARK  156  A    between atoms: _373  and  _375
REMARK  157  A    between atoms: _375  and  _376
REMARK  158  A    between atoms: _378  and  _380
REMARK  159  A    between atoms: _380  and  _381
REMARK  160  A    between atoms: _380  and  _383
REMARK  161  A    between atoms: _383  and  _384
REMARK  162  A    between atoms: _387  and  _389
REMARK  163  A    between atoms: _389  and  _390
REMARK  164  A    between atoms: _393  and  _395
REMARK  165  A    between atoms: _395  and  _396
REMARK  166  A    between atoms: _395  and  _398
REMARK  167  A    between atoms: _401  and  _403
REMARK  168  A    between atoms: _403  and  _404
REMARK  169  A    between atoms: _406  and  _408
REMARK  170  A    between atoms: _408  and  _409
REMARK  171  A    between atoms: _408  and  _411
REMARK  172  A    between atoms: _411  and  _412
REMARK  173  A    between atoms: _412  and  _413
REMARK  174  A    between atoms: _416  and  _418
REMARK  175  A    between atoms: _418  and  _419
REMARK  176  A    between atoms: _418  and  _421
REMARK  177  A    between atoms: _421  and  _422
REMARK  178  A    between atoms: _427  and  _428
REMARK  179  A    between atoms: _430  and  _432
REMARK  180  A    between atoms: _432  and  _433
REMARK  181  A    between atoms: _432  and  _435
REMARK  182  A    between atoms: _435  and  _436
REMARK  183  A    between atoms: _439  and  _441
REMARK  184  A    between atoms: _441  and  _442
REMARK  185  A    between atoms: _441  and  _444
REMARK  186  A    between atoms: _444  and  _445
REMARK  187  A    between atoms: _445  and  _446
REMARK  188  A    between atoms: _448  and  _450
REMARK  189  A    between atoms: _450  and  _451
REMARK  190  A    between atoms: _453  and  _455
REMARK  191  A    between atoms: _455  and  _456
REMARK  192  A    between atoms: _455  and  _458
REMARK  193  A    between atoms: _461  and  _463
REMARK  194  A    between atoms: _463  and  _464
REMARK  195  A    between atoms: _466  and  _468
REMARK  196  A    between atoms: _468  and  _469
REMARK  197  A    between atoms: _468  and  _471
REMARK  198  A    between atoms: _471  and  _472
REMARK  199  A    between atoms: _478  and  _480
REMARK  200  A    between atoms: _480  and  _481
REMARK  201  A    between atoms: _480  and  _483
REMARK  202  A    between atoms: _483  and  _484
REMARK  203  A    between atoms: _487  and  _489
REMARK  204  A    between atoms: _489  and  _490
REMARK  205  A    between atoms: _489  and  _492
REMARK  206  A    between atoms: _494  and  _496
REMARK  207  A    between atoms: _496  and  _497
REMARK  208  A    between atoms: _496  and  _499
REMARK  209  A    between atoms: _502  and  _504
REMARK  210  A    between atoms: _504  and  _505
REMARK  211  A    between atoms: _504  and  _507
REMARK  212  A    between atoms: _507  and  _508
REMARK  213  A    between atoms: _511  and  _513
REMARK  214  A    between atoms: _513  and  _514
REMARK  215  A    between atoms: _513  and  _516
REMARK  216  A    between atoms: _516  and  _517
REMARK  217  A    between atoms: _517  and  _518
REMARK  218  A    between atoms: _518  and  _519
REMARK                            x       y       z     vdW  Elec       q    Type
REMARK                         _______ _______ _______ _____ _____    ______ ____
ROOT
ATOM      1  O   HOH     1      16.206  17.206  79.861  0.00  0.00    +0.000 OA
ENDROOT
TORSDOF 0
